# Create simulation box
#
region 	     all block 0 78.752 0 80.86108639999017 0 24.0 units box
create_box          1 all
Created orthogonal box = (0.0000000 0.0000000 0.0000000) to (78.752000 80.861086 24.000000)

# fill box with randomly distributed atoms of number density 0.0327 N/A**3
#
create_atoms        1 random 4998 63782 all
Created 4998 atoms
mass                1 18.015

# Define potential
#
pair_style          sw
pair_coeff          * * ML.sw mW
Reading sw potential file ML.sw with DATE: 2019-02-27

# Run minimization
#
minimize            1.0e-8 1.0e-8 10000 1000
  update every 1 steps, delay 0 steps, check yes
Step Temp E_pair E_mol TotEng Press
0            0    8956112.7            0    8956112.7    5543432.6
Loop time of 99.3617 on 12 procs for 665 steps with 4998 atoms

Minimization stats:
  Stopping criterion = max force evaluations
  Energy initial, next-to-last, final =
  Force two-norm initial, final = 1.8308590e+08 5.8472796
  Force max component initial, final = 94709337.0 1.4368910
  Final line search alpha, max atom move = 0.024804291 0.035641062
  Iterations, force evaluations = 665 1000

# Add velocity/set timestep
#
velocity            all create 240 120598 rot yes dist gaussian
timestep            5.0

# Define output
#
compute	            1 all msd
thermo	            100
thermo_style        custom step temp press vol etotal ke pe c_1[4] density

# Neighbor lists
#
neigh_modify        delay 0 every 1 check yes

# Set fixes
#
fix                 1 all momentum 10 linear 1 1 1 rescale
fix                 2 all nve
fix                 3 all temp/csvr 240 240 500.0 928347
fix                 4 all press/berendsen z 1 1 1000.0 modulus 20000

# Run 0.25 ns equilibration
#
dump                1 all custom 1000 whole.Ibeam_MLmW_240K.dump id type x y z vx vy vz
run                 50000
Step Temp Press Volume TotEng KinEng PotEng c_1[4] Density
665          240    592.27729    152831.33   -50376.451    3574.8259   -53951.277            0     0.978289
Averages over the last 251 of 502 rows, steps 25700 to 50665:
Temp Press Volume TotEng KinEng PotEng c_1[4] Density
239.627 -4.58842 151190 -47040.1 3569.27 -50609.3 176.185 0.98891
Loop time of 2366.96 on 12 procs for 50000 steps with 4998 atoms

unfix               2
unfix               3
unfix               4

write_data		data.whole_Ibeam_MLmW_240K
System init for write_data ...

# Create the I-beam, width 35A
region beam block 21.876 56.876 0.0 INF 0.0 INF side out
delete_atoms region beam
Deleted 2761 atoms, new total = 2237

fix                 1 all momentum 10 linear 1 1 1 rescale
fix                 2 all nve
fix                 3 all temp/csvr 240 240 500.0 928347

# Run 0.05 ns equilibration
#
dump                2 all custom 1000 eq.Ibeam_MLmW_240K.dump id type x y z vx vy vz
run                 10000
Step Temp Press Volume TotEng KinEng PotEng c_1[4] Density
50665    235.94171   -286.59841    151331.91   -20295.945     1572.573   -21868.518    226.89356   0.44220005
Averages over the last 51 of 102 rows, steps 55700 to 60665:
Temp Press Volume TotEng KinEng PotEng c_1[4] Density
237.999 -110.259 151332 -20667.7 1586.28 -22254 265.045 0.4422
Loop time of 728.991 on 12 procs for 10000 steps with 2237 atoms

write_data		data.Ibeam_MLmW_240K
System init for write_data ...
