# Create simulation box
#
region 	     all block 0 68.908 0 85.84830153377978 0 18.0 units box
create_box          1 all
Created orthogonal box = (0.0000000 0.0000000 0.0000000) to (68.908000 85.848302 18.000000)

# fill box with randomly distributed atoms of number density 0.0327 N/A**3
#
create_atoms        1 random 3482 63782 all
Created 3482 atoms
mass                1 18.015

# Define potential
#
pair_style          sw
pair_coeff          * * ML.sw mW
Reading sw potential file ML.sw with DATE: 2019-02-27

# Run minimization
#
minimize            1.0e-8 1.0e-8 10000 1000
  update every 1 steps, delay 0 steps, check yes
Step Temp E_pair E_mol TotEng Press
0            0     15283821            0     15283821     13354298
Loop time of 7.91763 on 12 procs for 633 steps with 3482 atoms

Minimization stats:
  Stopping criterion = max force evaluations
  Energy initial, next-to-last, final =
  Force two-norm initial, final = 4.8470969e+08 5.0252696
  Force max component initial, final = 2.2621239e+08 1.0437726
  Final line search alpha, max atom move = 0.052221471 0.054507338
  Iterations, force evaluations = 633 1000

# Add velocity/set timestep
#
velocity            all create 240 120598 rot yes dist gaussian
timestep            5.0

# Define output
#
compute	            1 all msd
thermo	            100
thermo_style        custom step temp press vol etotal ke pe c_1[4] density

# Neighbor lists
#
neigh_modify        delay 0 every 1 check yes

# Set fixes
#
fix                 1 all momentum 10 linear 1 1 1 rescale
fix                 2 all nve
fix                 3 all temp/csvr 240 240 500.0 928347
fix                 4 all press/berendsen z 1 1 1000.0 modulus 20000

# Run 0.25 ns equilibration
#
dump                1 all custom 1000 whole.Ibeam_MLmW_240K.dump id type x y z vx vy vz
run                 50000
Step Temp Press Volume TotEng KinEng PotEng c_1[4] Density
633          240    447.61853    106481.43   -35080.972    2490.2879    -37571.26            0   0.97822382
Averages over the last 251 of 502 rows, steps 25700 to 50633:
Temp Press Volume TotEng KinEng PotEng c_1[4] Density
239.324 3.28183 105404 -32787.2 2483.27 -35270.4 177.302 0.988225
Loop time of 475.488 on 12 procs for 50000 steps with 3482 atoms

unfix               2
unfix               3
unfix               4

write_data		data.whole_Ibeam_MLmW_240K
System init for write_data ...

# Create the I-beam, width 35A
region beam block 17.0 53.0 0.0 INF 0.0 INF side out
delete_atoms region beam
Deleted 1662 atoms, new total = 1820

fix                 1 all momentum 10 linear 1 1 1 rescale
fix                 2 all nve
fix                 3 all temp/csvr 240 240 500.0 928347

# Run 0.05 ns equilibration
#
dump                2 all custom 1000 eq.Ibeam_MLmW_240K.dump id type x y z vx vy vz
run                 10000
Step Temp Press Volume TotEng KinEng PotEng c_1[4] Density
50633    239.38376   -482.62657    105456.65   -16599.168    1297.9611   -17897.129    228.46082   0.51627459
Averages over the last 51 of 102 rows, steps 55700 to 60633:
Temp Press Volume TotEng KinEng PotEng c_1[4] Density
239.366 -142.722 105457 -16795.6 1297.87 -18093.5 264.805 0.516275
Loop time of 71.5296 on 12 procs for 10000 steps with 1820 atoms

write_data		data.Ibeam_MLmW_240K
System init for write_data ...
