variable Z_SHIFT equal 20

read_data data.wall_225K_20A_run group wall
Reading data file ...
  orthogonal box = (-0.85299249 -0.85299249 -0.063184629) to (270.85299 270.85299 20.063185)
  reading atoms ...
  48200 atoms
  reading velocities ...
  48200 velocities
read_data data.10A_54A_cylinder add append shift 0.0 0.0 20 group drop
Reading data file ...
  orthogonal box = (-0.85299249 -0.85299249 -0.063184629) to (270.85299 270.85299 39.279945)
  reading atoms ...
  6011 atoms
  reading velocities ...
  6011 velocities

write_data run_1/data.initial_pres_density_1
System init for write_data ...

# Define potential
#
pair_style          sw
pair_coeff          * * ML_mW.sw mW
Reading sw potential file ML_mW.sw with DATE: 2019-02-27

# Run minimization
#
minimize            1.0e-8 1.0e-8 10000 1000
  update every 1 steps, delay 0 steps, check yes
Step Temp E_pair E_mol TotEng Press
0    224.34022   -490465.24            0   -454214.17    1240.6565
Loop time of 15.1572 on 6 procs for 850 steps with 54211 atoms

Minimization stats:
  Stopping criterion = max force evaluations
  Energy initial, next-to-last, final =
  Force two-norm initial, final = 38845.168 7.3244406
  Force max component initial, final = 14518.129 1.3619679
  Final line search alpha, max atom move = 0.045666355 0.062196109
  Iterations, force evaluations = 850 1001

# Add velocity/set timestep
#
velocity            drop create 230 120598 rot yes dist gaussian
fix		5 wall setforce 0.0 0.0 0.0
timestep            5.0

# Define output
#
compute	            1 drop msd
compute		    2 drop stress/atom NULL
thermo	            100
thermo_style        custom step temp press vol etotal ke pe c_1[4] density

# Neighbor lists
#
neigh_modify        delay 0 every 1 check yes

# Set fixes
#
fix                 1 drop momentum 10 linear 1 1 1 rescale
fix                 2 drop nve
fix                 3 drop temp/csvr 230 230 500.0 928347
fix                 4 drop press/berendsen iso 1 1 1000.0 modulus 20000

# Run 0.5 ns equilibration
#
dump                1 all custom 1000 run_1/eq.pres_density_1.dump id type x y z vx vy vz
run                 100000
Step Temp Press Volume TotEng KinEng PotEng c_1[4] Density
850    225.08287    289.99421    2904472.8   -543873.63    36371.077   -580244.71            0   0.55834602
Averages over the last 501 of 1002 rows, steps 50900 to 100850:
Temp Press Volume TotEng KinEng PotEng c_1[4] Density
225.05 0.808732 2.91239e+06 -539998 36365.7 -576364 78.7767 0.556827
Loop time of 2074.16 on 6 procs for 100000 steps with 54211 atoms

write_data 	    run_1/data.pres_density_1
System init for write_data ...

undump              1
unfix               2
unfix               3
unfix               4

################################################
#######         Run Simulation         #########
################################################

reset_timestep      0
timestep	    5.0
log                 run_1/log.run_pres_density_1
