### Dimensions ###
variable Z_G equal 10.062000000000001
variable Z_W equal 11.89823586

variable	XDIM string 68.908
variable 	YDIM string 68.92587069519459

### IMPORT ATOMS ###
read_data ../Box_Setup/data.Ibeam_240K
Reading data file ...
  orthogonal box = (0.0000000 0.0000000 0.0000000) to (68.908000 68.925871 22.011118)
  reading atoms ...
  6374 atoms
  reading velocities ...
  6374 velocities
group water type 2
858 atoms in group water
group graphite type 1
5516 atoms in group graphite

# Define potential
#
pair_style          sw
pair_coeff * * MLC_e.sw C mW

# Add velocity/set timestep
#

fix		1 graphite setforce 0.0 0.0 0.0
velocity 	graphite set 0.0 0.0 0.0
velocity            water create 240 120598 rot yes dist gaussian
timestep            5.0

# Define output
#
compute 1 water msd
compute 2 water temp

thermo	            100
thermo_style custom step c_2 press vol etotal ke pe c_1[4] density

# Neighbor lists
#
neigh_modify        delay 0 every 1 check yes

# Set fixes
#
fix                 2 water momentum 10 linear 1 1 1 rescale
fix                 3 all nve
fix                 4 water temp/csvr 240 240 500.0 928347

# Run 0.05 ns equilibration
#
dump                1 all custom 100 run_0/eq.ibeam_cooling_0.dump id type x y z vx vy vz
run                 10000
  update every 1 steps, delay 0 steps, check yes
Step c_2 Press Volume TotEng KinEng PotEng c_1[4] Density
0          240   -543.44149    104542.77   -8445.5021    613.09301   -9058.5951            0    1.2977724
Averages over the last 51 of 101 rows, steps 5000 to 10000:
c_2 Press Volume TotEng KinEng PotEng c_1[4] Density
239.927 -544.915 104543 -8502.76 612.907 -9115.66 9.5374 1.29777
Loop time of 24.711 on 12 procs for 10000 steps with 6374 atoms

write_data 	    run_0/data.ibeam_cooling_0_eq
System init for write_data ...

undump              1
unfix               4

################################################
#######         Run Simulation         #########
################################################

reset_timestep      0
timestep	    10.0
log                 run_0/log.run_ibeam_cooling_0
