# Create simulation box of size 270 x 270 x 50 Angstrom
#
lattice	     sc 1
Lattice spacing in x,y,z = 1.0000000 1.0000000 1.0000000
region 	     all block 0 270 0 270 0 30 units box
create_box          1 all
Created orthogonal box = (0.0000000 0.0000000 0.0000000) to (270.00000 270.00000 30.000000)

# Create quasi-2d droplet, with radius of 1.5nm (15 A)
#
region              droplet cylinder z 135 135 15 -0.0 30 units box

# fill box with randomly distributed atoms such that density is ~0.0333 N/A^3
#
create_atoms        1 random 670 63782 droplet
Created 670 atoms
mass                1 18.015

# Define potential
#
pair_style          sw
pair_coeff          * * ML_mW.sw mW
Reading sw potential file ML_mW.sw with DATE: 2019-02-27

# Run minimization
#
minimize            1.0e-8 1.0e-8 10000 1000
  update every 1 steps, delay 0 steps, check yes
Step Temp E_pair E_mol TotEng Press
0            0    537980.24            0    537980.24    23945.361
Loop time of 0.476512 on 6 procs for 546 steps with 670 atoms

Minimization stats:
  Stopping criterion = energy tolerance
  Energy initial, next-to-last, final =
  Force two-norm initial, final = 6818220.5 0.064543997
  Force max component initial, final = 4673847.1 0.01378207
  Final line search alpha, max atom move = 1.0000000 0.01378207
  Iterations, force evaluations = 546 887

# Add velocity/set timestep
#
velocity            all create 225 120598 rot yes dist gaussian
timestep            10.0

##### Equilibrate #####

thermo	            100
thermo_style        custom step temp press vol etotal ke pe

# Neighbor lists
#
neigh_modify        delay 0 every 1 check yes

# Set fixes
#
fix                 1 all momentum 10 linear 1 1 1 rescale
fix                 2 all nve
fix                 3 all temp/csvr 225 225 500.0 928347
fix                 4 all press/berendsen iso 1 1 1000.0 modulus 20000

# Run 0.5 ns equilibration
#
dump                1 all custom 1000 eq.15A_core.dump id type x y z vx vy vz
run                 50000
Step Temp Press Volume TotEng KinEng PotEng
546          225    6.9427493      2187000   -6363.8529    448.68643   -6812.5394
Averages over the last 251 of 502 rows, steps 25600 to 50546:
Temp Press Volume TotEng KinEng PotEng
224.724 -2.00451 2.08364e+06 -6082.67 448.136 -6530.81
Loop time of 37.3112 on 6 procs for 50000 steps with 670 atoms

write_data data.15A_core
System init for write_data ...
