################################################
#######         Run Simulation         #########
################################################

read_data		data.15A_core
Reading data file ...
  orthogonal box = (2.9194518 2.9194518 0.32438353) to (267.08055 267.08055 29.675616)
  reading atoms ...
  670 atoms
  reading velocities ...
  670 velocities

## Real units, atomic atom style (no bonded interactions)
#
timestep            2.0

# Define potential
#
pair_style          sw
pair_coeff          * * ML_mW.sw mW
Reading sw potential file ML_mW.sw with DATE: 2019-02-27

# Set production fixes - Nose/Hoover
#
fix                 2 all nvt temp 225 225 1000.0

# divide "droplet" into core and surface
region		core_reg cylinder z 135 135 6 INF INF units box
region		surface_reg cylinder z 135 135 6 INF INF units box side out
group		core dynamic all region core_reg
dynamic group core defined
group		surface dynamic all region surface_reg
dynamic group surface defined

# compute pressure core
compute        peratom_core core stress/atom NULL
compute        p_core core reduce sum c_peratom_core[1] c_peratom_core[2] c_peratom_core[3]
variable       press_core equal -(c_p_core[1]+c_p_core[2]+c_p_core[3])/(3*2974.46)

# compute pressure surface
compute        peratom_surf surface stress/atom NULL
compute        p_surf surface reduce sum c_peratom_surf[1] c_peratom_surf[2] c_peratom_surf[3]
variable       press_surf equal -(c_p_surf[1]+c_p_surf[2]+c_p_surf[3])/(3*13220)

# compute order parameter
compute	order all orientorder/atom nnn NULL cutoff 3.5
compute        peratom all stress/atom NULL
compute        p all reduce sum c_peratom[1] c_peratom[2] c_peratom[3]
variable       press equal -(c_p[1]+c_p[2]+c_p[3])/(3*16194.28)

# Run 5ns simulation
thermo_style        custom step temp press vol etotal ke pe v_press v_press_core v_press_surf
thermo              200
dump		        1 all custom 400 prod.15A_core.dump id type x y z vx vy vz c_order[*] c_peratom[*]
run                 2500000
  update every 1 steps, delay 10 steps, check yes
Step Temp Press Volume TotEng KinEng PotEng v_press v_press_core v_press_surf
0    224.89362   0.60447412    2048160.9   -6110.8518     448.4743   -6559.3261    76.450465    1306.4849   -200.30459
Averages over the last 6251 of 12501 rows, steps 1250000 to 2500000:
Temp Press Volume TotEng KinEng PotEng v_press v_press_core v_press_surf
224.866 -1.37411 2.04816e+06 -6108.12 448.419 -6556.54 -173.79 478.369 -320.522
Loop time of 962.821 on 6 procs for 2500000 steps with 670 atoms

write_data 		data.15A_core_run
System init for write_data ...
