# Create simulation box of size 270 x 270 x 10 Angstrom
#
lattice	     sc 1
Lattice spacing in x,y,z = 1.0000000 1.0000000 1.0000000
region 	     all block 0 270 0 270 0 20 units box
create_box          1 all
Created orthogonal box = (0.0000000 0.0000000 0.0000000) to (270.00000 270.00000 20.000000)

# Create quasi-2d droplet, with radius of 1nm (10 A)
#
region              droplet cylinder z 50 50 10 -0.0 50 units box

# fill box with randomly distributed atoms such that density is ~0.0333 N/A^3
#
create_atoms        1 random 519 63782 droplet
Created 519 atoms
mass                1 18.015

# Define potential
#
pair_style          sw
pair_coeff          * * ML_mW.sw mW
Reading sw potential file ML_mW.sw with DATE: 2019-02-27

# Run minimization
#
minimize            1.0e-8 1.0e-8 10000 1000
  update every 1 steps, delay 0 steps, check yes
Step Temp E_pair E_mol TotEng Press
0            0    2193748.2            0    2193748.2    143821.43
Loop time of 2.02865 on 6 procs for 552 steps with 519 atoms

Minimization stats:
  Stopping criterion = max force evaluations
  Energy initial, next-to-last, final =
  Force two-norm initial, final = 52311674.0 2.7355187
  Force max component initial, final = 35911961.0 0.42830298
  Final line search alpha, max atom move = 0.1051997 0.045057345
  Iterations, force evaluations = 552 1001

# Add velocity/set timestep
#
velocity            all create 225 120598 rot yes dist gaussian
timestep            10.0

##### Equilibrate #####

thermo	            100
thermo_style        custom step temp press vol etotal ke pe

# Neighbor lists
#
neigh_modify        delay 0 every 1 check yes

# Set fixes
#
fix                 1 all momentum 10 linear 1 1 1 rescale
fix                 2 all nve
fix                 3 all temp/csvr 225 225 500.0 928347
fix                 4 all press/berendsen iso 1 1 1000.0 modulus 20000

# Run 0.5 ns equilibration
#
dump                1 all custom 1000 eq.10A_reduced.dump id type x y z vx vy vz
run                 50000
Step Temp Press Volume TotEng KinEng PotEng
552          225    10.777222      1458000   -5101.2598    347.41341   -5448.6732
Averages over the last 251 of 502 rows, steps 25600 to 50552:
Temp Press Volume TotEng KinEng PotEng
223.992 -1.8099 1.3881e+06 -4734.22 345.858 -5080.07
Loop time of 77.4985 on 6 procs for 50000 steps with 519 atoms

write_data data.10A_reduced
System init for write_data ...
undump              1
unfix               2
unfix               3
unfix               4

################################################
#######         Run Simulation         #########
################################################

reset_timestep      0
timestep            2.0
log                 log.run_10A_reduced
