# Create simulation box
#
region 	     all block 0 157.504 0 40.430543199995086 0 24.0 units box
create_box          1 all
Created orthogonal box = (0.0000000 0.0000000 0.0000000) to (157.50400 40.430543 24.000000)

# fill box with randomly distributed atoms of number density 0.0327 N/A**3
#
create_atoms        1 random 4998 63782 all
Created 4998 atoms
mass                1 18.015

# Define potential
#
pair_style          sw
pair_coeff          * * ML.sw mW
Reading sw potential file ML.sw with DATE: 2019-02-27

# Run minimization
#
minimize            1.0e-8 1.0e-8 10000 1000
  update every 1 steps, delay 0 steps, check yes
Step Temp E_pair E_mol TotEng Press
0            0    5414040.3            0    5414040.3    3416651.4
Loop time of 1.16995 on 12 procs for 667 steps with 4998 atoms

Minimization stats:
  Stopping criterion = max force evaluations
  Energy initial, next-to-last, final =
  Force two-norm initial, final = 43331883.0 3.5658621
  Force max component initial, final = 19896590.0 0.64091522
  Final line search alpha, max atom move = 0.062028064 0.039754731
  Iterations, force evaluations = 667 1000

# Add velocity/set timestep
#
velocity            all create 240 120598 rot yes dist gaussian
timestep            5.0

# Define output
#
compute	            1 all msd
thermo	            100
thermo_style        custom step temp press vol etotal ke pe c_1[4] density

# Neighbor lists
#
neigh_modify        delay 0 every 1 check yes

# Set fixes
#
fix                 1 all momentum 10 linear 1 1 1 rescale
fix                 2 all nve
fix                 3 all temp/csvr 240 240 500.0 928347
fix                 4 all press/berendsen z 1 1 1000.0 modulus 20000

# Run 0.25 ns equilibration
#
dump                1 all custom 1000 whole.Ibeam_MLmW_240K.dump id type x y z vx vy vz
run                 50000
Step Temp Press Volume TotEng KinEng PotEng c_1[4] Density
667          240    278.58297    152831.33   -50334.795    3574.8259   -53909.621            0     0.978289
Averages over the last 251 of 502 rows, steps 25700 to 50667:
Temp Press Volume TotEng KinEng PotEng c_1[4] Density
239.429 -5.22706 151137 -47019.5 3566.32 -50585.8 184.942 0.989259
Loop time of 50.3892 on 12 procs for 50000 steps with 4998 atoms

unfix               2
unfix               3
unfix               4

write_data		data.whole_Ibeam_MLmW_240K
System init for write_data ...

# Create the I-beam, width 35A
region beam block 46.252 111.252 0.0 INF 0.0 INF side out
delete_atoms region beam
Deleted 2928 atoms, new total = 2070

fix                 1 all momentum 10 linear 1 1 1 rescale
fix                 2 all nve
fix                 3 all temp/csvr 240 240 500.0 928347

# Run 0.05 ns equilibration
#
dump                2 all custom 1000 eq.Ibeam_MLmW_240K.dump id type x y z vx vy vz
run                 10000
Step Temp Press Volume TotEng KinEng PotEng c_1[4] Density
50667    238.33739   -243.26749    151037.82   -19021.999    1469.8972   -20491.896     264.9954   0.40998499
Averages over the last 51 of 102 rows, steps 55700 to 60667:
Temp Press Volume TotEng KinEng PotEng c_1[4] Density
238.738 -32.1659 151038 -19265.3 1472.37 -20737.6 311.07 0.409985
Loop time of 8.3865 on 12 procs for 10000 steps with 2070 atoms

write_data		data.Ibeam_MLmW_240K
System init for write_data ...
