# read in graphite data
read_data data.graphite group graphite extra/atom/types 1
Reading data file ...
  orthogonal box = (0.0000000 0.0000000 0.0000000) to (78.752000 72.975319 10.062000)
  reading atoms ...
  6624 atoms
  reading velocities ...
  6624 velocities

# Insert water
read_data data.Ibeam_MLmW_235K add append shift 0.0 0.0 10.062 group water offset 1 0 0 0 0
Reading data file ...
  orthogonal box = (0.0000000 0.0000000 0.0000000) to (78.752000 72.975319 40.002420)
  reading atoms ...
  2502 atoms
  reading velocities ...
  2502 velocities

# Define potential
# CHECK ON THIS %%%%%%%%%%%%
#
pair_style sw
pair_coeff * * MLC_e.sw C mW

# Delete water and ice atoms that are overlapping
#
delete_atoms overlap 2.5 water graphite
System init for delete_atoms ...
  update every 1 steps, delay 10 steps, check yes
Deleted 116 atoms, new total = 9010

write_data test.Ibeam_235K
System init for write_data ...
  update every 1 steps, delay 10 steps, check yes

# Fix graphite atoms in place
#
fix 1 graphite setforce 0.0 0.0 0.0
velocity graphite set 0.0 0.0 0.0
velocity water create 235 120598 rot yes dist gaussian
timestep 5.0

# Define output
#

compute 1 water msd
compute 2 water stress/atom NULL
compute 3 water temp

thermo 100
thermo_style custom step c_3 press vol etotal ke pe c_1[4] density

# Neighbor lists
#
neigh_modify delay 0 every 1 check yes

# Set fixes
#
fix                 2 water momentum 10 linear 1 1 1 rescale
fix                 3 all nve
fix                 4 water temp/csvr 235 235 500.0 928347

# Run 0.25 ns equilibration
#
dump                1 all custom 100 eq.Ibeam_235K.dump id type x y z vx vy vz
run                 50000
Step c_3 Press Volume TotEng KinEng PotEng c_1[4] Density
0          235   -584.52526       229892   -21576.437    1670.6695   -23247.106            0   0.88510766
Averages over the last 251 of 501 rows, steps 25000 to 50000:
c_3 Press Volume TotEng KinEng PotEng c_1[4] Density
234.786 -341.815 229892 -22638.7 1669.15 -24307.8 112.959 0.885108
Loop time of 184.962 on 12 procs for 50000 steps with 9010 atoms

# Create data file for import to other simulations
#
write_data data.Ibeam_235K
System init for write_data ...
