# Create simulation box
#
region 	     all block 0 78.752 0 72.97531888075024 0 30.0 units box
create_box          1 all
Created orthogonal box = (0.0000000 0.0000000 0.0000000) to (78.752000 72.975319 30.000000)

# fill box with randomly distributed atoms of number density 0.0327 N/A**3
#
create_atoms        1 random 5638 63782 all
Created 5638 atoms
mass                1 18.015

# Define potential
#
pair_style          sw
pair_coeff          * * ML.sw mW
Reading sw potential file ML.sw with DATE: 2019-02-27

# Run minimization
#
minimize            1.0e-8 1.0e-8 10000 1000
  update every 1 steps, delay 0 steps, check yes
Step Temp E_pair E_mol TotEng Press
0            0    8546915.3            0    8546915.3    4713861.8
Loop time of 1.27065 on 12 procs for 673 steps with 5638 atoms

Minimization stats:
  Stopping criterion = max force evaluations
  Energy initial, next-to-last, final =
  Force two-norm initial, final = 1.3610265e+08 9.7899104
  Force max component initial, final = 78084875.0 2.9854584
  Final line search alpha, max atom move = 0.017293344 0.051628557
  Iterations, force evaluations = 673 1001

# Add velocity/set timestep
#
velocity            all create 235 120598 rot yes dist gaussian
timestep            5.0

# Define output
#
compute	            1 all msd
thermo	            100
thermo_style        custom step temp press vol etotal ke pe c_1[4] density

# Neighbor lists
#
neigh_modify        delay 0 every 1 check yes

# Set fixes
#
fix                 1 all momentum 10 linear 1 1 1 rescale
fix                 2 all nve
fix                 3 all temp/csvr 235 235 500.0 928347
fix                 4 all press/berendsen z 1 1 1000.0 modulus 20000

# Run equilibration
#
dump                1 all custom 1000 whole.Ibeam_MLmW_235K.dump id type x y z vx vy vz
run                 25000
Step Temp Press Volume TotEng KinEng PotEng c_1[4] Density
673          235    322.82095    172408.57   -56867.651    3948.6642   -60816.315 5.6368766e-34   0.97824931
Averages over the last 126 of 252 rows, steps 13200 to 25673:
Temp Press Volume TotEng KinEng PotEng c_1[4] Density
235.338 -5.14007 171621 -53430.7 3954.34 -57385.1 73.7746 0.982743
Loop time of 30.5157 on 12 procs for 25000 steps with 5638 atoms

unfix               2
unfix               3
unfix               4

write_data		data.whole_Ibeam_MLmW_235K
System init for write_data ...

# Create the I-beam, width 35A
region beam block 21.876 56.876 0.0 INF 0.0 INF side out
delete_atoms region beam
Deleted 3136 atoms, new total = 2502

fix                 1 all momentum 10 linear 1 1 1 rescale
fix                 2 all nve
fix                 3 all temp/csvr 235 235 500.0 928347

# Run 0.05 ns equilibration
#
dump                2 all custom 1000 eq.Ibeam_MLmW_235K.dump id type x y z vx vy vz
run                 10000
Step Temp Press Volume TotEng KinEng PotEng c_1[4] Density
25673    233.86898   -522.39231    171723.76   -22884.207    1743.4946   -24627.702    103.25095    0.4358532
Averages over the last 51 of 102 rows, steps 30700 to 35673:
Temp Press Volume TotEng KinEng PotEng c_1[4] Density
234.976 -101.689 171724 -23214.3 1751.75 -24966 134.02 0.435853
Loop time of 8.81542 on 12 procs for 10000 steps with 2502 atoms

write_data		data.Ibeam_MLmW_235K
System init for write_data ...
