# Create simulation box
#
region 	     all block 0 157.504 0 36.48765944037512 0 30.0 units box
create_box          1 all
Created orthogonal box = (0.0000000 0.0000000 0.0000000) to (157.50400 36.487659 30.000000)

# fill box with randomly distributed atoms of number density 0.0327 N/A**3
#
create_atoms        1 random 5638 63782 all
Created 5638 atoms
mass                1 18.015

# Define potential
#
pair_style          sw
pair_coeff          * * ML.sw mW
Reading sw potential file ML.sw with DATE: 2019-02-27

# Run minimization
#
minimize            1.0e-8 1.0e-8 10000 1000
  update every 1 steps, delay 0 steps, check yes
Step Temp E_pair E_mol TotEng Press
0            0     14365612            0     14365612    7819703.7
Loop time of 1.23463 on 12 procs for 693 steps with 5638 atoms

Minimization stats:
  Stopping criterion = max force evaluations
  Energy initial, next-to-last, final =
  Force two-norm initial, final = 5.3649441e+08 4.7451309
  Force max component initial, final = 3.0729372e+08 1.0537686
  Final line search alpha, max atom move = 0.058313723 0.061449171
  Iterations, force evaluations = 693 1001

# Add velocity/set timestep
#
velocity            all create 240 120598 rot yes dist gaussian
timestep            5.0

# Define output
#
compute	            1 all msd
thermo	            100
thermo_style        custom step temp press vol etotal ke pe c_1[4] density

# Neighbor lists
#
neigh_modify        delay 0 every 1 check yes

# Set fixes
#
fix                 1 all momentum 10 linear 1 1 1 rescale
fix                 2 all nve
fix                 3 all temp/csvr 240 240 500.0 928347
fix                 4 all press/berendsen z 1 1 1000.0 modulus 20000

# Run equilibration
#
dump                1 all custom 1000 whole.Ibeam_MLmW_240K.dump id type x y z vx vy vz
run                 25000
Step Temp Press Volume TotEng KinEng PotEng c_1[4] Density
693          240    180.14989    172408.57   -56761.059    4032.6783   -60793.738 1.7241309e-33   0.97824931
Averages over the last 126 of 252 rows, steps 13200 to 25693:
Temp Press Volume TotEng KinEng PotEng c_1[4] Density
239.806 -3.73519 170430 -53024.8 4029.42 -57054.2 90.1943 0.989608
Loop time of 28.6346 on 12 procs for 25000 steps with 5638 atoms

unfix               2
unfix               3
unfix               4

write_data		data.whole_Ibeam_MLmW_240K
System init for write_data ...

# Create the I-beam, width 65A
region beam block 46.252 111.252 0.0 INF 0.0 INF side out
delete_atoms region beam
Deleted 3322 atoms, new total = 2316

fix                 1 all momentum 10 linear 1 1 1 rescale
fix                 2 all nve
fix                 3 all temp/csvr 240 240 500.0 928347

# Run 0.05 ns equilibration
#
dump                2 all custom 1000 eq.Ibeam_MLmW_240K.dump id type x y z vx vy vz
run                 10000
Step Temp Press Volume TotEng KinEng PotEng c_1[4] Density
25693    232.76245   -127.90721    169975.84   -21355.717    1606.1948   -22961.911     149.5189   0.40760047
Averages over the last 51 of 102 rows, steps 30700 to 35693:
Temp Press Volume TotEng KinEng PotEng c_1[4] Density
238.938 -40.7181 169976 -21569 1648.81 -23217.8 184.458 0.4076
Loop time of 12.7921 on 12 procs for 10000 steps with 2316 atoms

write_data		data.Ibeam_MLmW_240K
System init for write_data ...
