# Create simulation box
#
region 	     all block 0 68.908 0 68.92587069519459 0 18.0 units box
create_box          1 all
Created orthogonal box = (0.0000000 0.0000000 0.0000000) to (68.908000 68.925871 18.000000)

# fill box with randomly distributed atoms of number density 0.0327 N/A**3
#
create_atoms        1 random 2796 63782 all
Created 2796 atoms
mass                1 18.015

# Define potential
#
pair_style          sw
pair_coeff          * * ML.sw mW
Reading sw potential file ML.sw with DATE: 2019-02-27

# Run minimization
#
minimize            1.0e-8 1.0e-8 10000 1000
  update every 1 steps, delay 0 steps, check yes
Step Temp E_pair E_mol TotEng Press
0            0    8413118.2            0    8413118.2    9209187.4
Loop time of 0.683632 on 12 procs for 630 steps with 2796 atoms

Minimization stats:
  Stopping criterion = max force evaluations
  Energy initial, next-to-last, final =
  Force two-norm initial, final = 3.0461033e+08 1.2459300
  Force max component initial, final = 2.0426939e+08 0.34789084
  Final line search alpha, max atom move = 0.27199921 0.094626033
  Iterations, force evaluations = 630 1001

# Add velocity/set timestep
#
velocity            all create 240 120598 rot yes dist gaussian
timestep            5.0

# Define output
#
compute	            1 all msd
thermo	            100
thermo_style        custom step temp press vol etotal ke pe c_1[4] density

# Neighbor lists
#
neigh_modify        delay 0 every 1 check yes

# Set fixes
#
fix                 1 all momentum 10 linear 1 1 1 rescale
fix                 2 all nve
fix                 3 all temp/csvr 240 240 500.0 928347
fix                 4 all press/berendsen z 1 1 1000.0 modulus 20000

# Run 0.25 ns equilibration
#
dump                1 all custom 1000 whole.Ibeam_MLmW_240K.dump id type x y z vx vy vz
run                 50000
Step Temp Press Volume TotEng KinEng PotEng c_1[4] Density
630          240    274.24254     85491.79   -28148.999    1999.5274   -30148.526            0   0.97835413
Averages over the last 251 of 502 rows, steps 25700 to 50630:
Temp Press Volume TotEng KinEng PotEng c_1[4] Density
239.226 17.961 84426.6 -26302.9 1993.08 -28296 171.768 0.990708
Loop time of 53.0296 on 12 procs for 50000 steps with 2796 atoms

unfix               2
unfix               3
unfix               4

write_data		data.whole_Ibeam_MLmW_240K
System init for write_data ...

# Create the I-beam, width 35A
region beam block 17.0 53.0 0.0 INF 0.0 INF side out
delete_atoms region beam
Deleted 1337 atoms, new total = 1459

fix                 1 all momentum 10 linear 1 1 1 rescale
fix                 2 all nve
fix                 3 all temp/csvr 240 240 500.0 928347

# Run 0.05 ns equilibration
#
dump                2 all custom 1000 eq.Ibeam_MLmW_240K.dump id type x y z vx vy vz
run                 10000
Step Temp Press Volume TotEng KinEng PotEng c_1[4] Density
50630    243.23625   -554.08273    84454.122    -13242.22    1057.1099   -14299.329     222.4374   0.51679436
Averages over the last 51 of 102 rows, steps 55700 to 60630:
Temp Press Volume TotEng KinEng PotEng c_1[4] Density
237.668 -112.322 84454.1 -13512.8 1032.91 -14545.7 252.424 0.516794
Loop time of 8.35181 on 12 procs for 10000 steps with 1459 atoms

write_data		data.Ibeam_MLmW_240K
System init for write_data ...
