# Create simulation box and atoms
lattice		    sc 1
Lattice spacing in x,y,z = 1 1 1
region 		    all block 0 51.42 0 51.42 0 51.42 units box
create_box 	    1 all
Created orthogonal box = (0 0 0) to (51.42 51.42 51.42)

create_atoms	1 random 4457 14650 all
Created 4457 atoms

mass		    1 18.15

# Define potential

pair_style 	    sw
pair_coeff	    * * mW_real.sw mW
Reading potential file mW_real.sw with DATE: 2019-02-27

# Run minimization

minimize 	    1.0e-8 1.0e-8 10000 1000
  update every 1 steps, delay 0 steps, check yes
Step Temp E_pair E_mol TotEng Press
0            0 1.8247227e+08            0 1.8247227e+08 1.2300268e+08
Loop time of 1.98126 on 12 procs for 727 steps with 4457 atoms

Minimization stats:
  Stopping criterion = max force evaluations
  Energy initial, next-to-last, final =
  Force two-norm initial, final = 2.36579e+10 4.10723
  Force max component initial, final = 1.61728e+10 1.139
  Final line search alpha, max atom move = 0.0749305 0.085346
  Iterations, force evaluations = 727 1000

# Create Cavity with Hard sphere "indent" potential

region		    cavity sphere 25.71 25.71 25.71 13.8 side in
delete_atoms	    region cavity
Deleted 362 atoms, new total = 4095
fix 		    5 all indent 10.0 sphere 25.71 25.71 25.71 13.8

# Equilibration of molecular water

# Add velocity/set timestep

velocity	    all create 215 14650 rot yes dist gaussian
timestep	    5.0

# Define output

compute			1 all msd
thermo	    	50
thermo_style	custom step temp press vol etotal ke pe c_1[4]

# Neighbor lists

neigh_modify    delay 0 every 1 check yes

# Set fixes

fix             1 all momentum 10 linear 1 1 1 rescale
fix             2 all nve
fix             3 all temp/csvr 215 215 500.0 14650
fix             4 all press/berendsen iso 1.0 1.0 1000.0 modulus 20000

# Run 1 ns equilibration

dump		    1 all atom 2000 run_4/eq.hardcavity_freeze_nvt_4-215.dump

reset_timestep  0

run	            200000
Step Temp Press Volume TotEng KinEng PotEng c_1[4]
0          215   -330.55091    135955.32   -43009.186    2623.7388   -45632.925 1.1836285e-33
Averages over the last 2001 of 4001 rows, steps 100000 to 200000:
Temp Press Volume TotEng KinEng PotEng c_1[4]
214.929 0.68391 132178 -40760.7 2622.88 -43383.5 432.797
Loop time of 346.855 on 12 procs for 200000 steps with 4095 atoms

write_data		run_4/data.eq-hardcavity_freeze_nvt_4-215
undump          1

reset_timestep  0

unfix           2
unfix           3
unfix           4

################################################
#######         Run Simulation         #########
################################################

log				run_4/log.run_hardcavity_freeze_nvt_4
