# Create simulation box
#
region 	     all block 0 189.98919 0 26.9999 0 30.0 units box
create_box          1 all
Created orthogonal box = (0.0000000 0.0000000 0.0000000) to (189.98919 26.999900 30.000000)

# fill box with randomly distributed atoms of number density 0.0327 N/A**3
#
create_atoms        1 random 5032 63782 all
Created 5032 atoms
mass                1 18.015

# Define potential
#
pair_style          sw
pair_coeff          * * ML.sw mW
Reading sw potential file ML.sw with DATE: 2019-02-27

# Run minimization
#
minimize            1.0e-8 1.0e-8 10000 1000
  update every 1 steps, delay 0 steps, check yes
Step Temp E_pair E_mol TotEng Press
0            0    4934030.8            0    4934030.8    3106507.5
Loop time of 1.00954 on 12 procs for 689 steps with 5032 atoms

Minimization stats:
  Stopping criterion = max force evaluations
  Energy initial, next-to-last, final =
  Force two-norm initial, final = 23717185.0 2.1041847
  Force max component initial, final = 8348995.6 0.61524765
  Final line search alpha, max atom move = 0.12619836 0.077643246
  Iterations, force evaluations = 689 1001

# Add velocity/set timestep
#
velocity            all create 240 120598 rot yes dist gaussian
timestep            5.0

# Define output
#
compute	            1 all msd
thermo	            100
thermo_style        custom step temp press vol etotal ke pe c_1[4] density

# Neighbor lists
#
neigh_modify        delay 0 every 1 check yes

# Set fixes
#
fix                 1 all momentum 10 linear 1 1 1 rescale
fix                 2 all nve
fix                 3 all temp/csvr 240 240 500.0 928347
fix                 4 all press/berendsen z 1 1 1000.0 modulus 20000

# Run equilibration
#
dump                1 all custom 1000 whole.Ibeam_MLmW_240K.dump id type x y z vx vy vz
run                 25000
Step Temp Press Volume TotEng KinEng PotEng c_1[4] Density
689          240    308.56125    153890.67   -50726.265    3599.1493   -54325.414 2.0351055e-34   0.97816396
Averages over the last 126 of 252 rows, steps 13200 to 25689:
Temp Press Volume TotEng KinEng PotEng c_1[4] Density
240.052 3.90784 152183 -47344 3599.93 -50943.9 93.6795 0.989148
Loop time of 25.2503 on 12 procs for 25000 steps with 5032 atoms

unfix               2
unfix               3
unfix               4

write_data		data.whole_Ibeam_MLmW_240K
System init for write_data ...

# Create the I-beam, width 95A
region beam block 47.5 142.5 0.0 INF 0.0 INF side out
delete_atoms region beam
Deleted 2501 atoms, new total = 2531

fix                 1 all momentum 10 linear 1 1 1 rescale
fix                 2 all nve
fix                 3 all temp/csvr 240 240 500.0 928347

# Run 0.05 ns equilibration
#
dump                2 all custom 1000 eq.Ibeam_MLmW_240K.dump id type x y z vx vy vz
run                 10000
Step Temp Press Volume TotEng KinEng PotEng c_1[4] Density
25689    235.37432   -161.98514    151720.27   -23480.528    1775.0636   -25255.592    127.69945     0.499036
Averages over the last 51 of 102 rows, steps 30700 to 35689:
Temp Press Volume TotEng KinEng PotEng c_1[4] Density
237.842 -8.63505 151720 -23707 1793.67 -25500.7 165.771 0.499036
Loop time of 8.65992 on 12 procs for 10000 steps with 2531 atoms

write_data		data.Ibeam_MLmW_240K
System init for write_data ...
