### Dimensions ###

### IMPORT ATOMS ###
read_data ../Box_Setup/data.Ibeam_235K
Reading data file ...
  orthogonal box = (0.0000000 0.0000000 0.0000000) to (78.752000 72.975319 40.002420)
  reading atoms ...
  9010 atoms
  reading velocities ...
  9010 velocities
group water type 2
2386 atoms in group water
group graphite type 1
6624 atoms in group graphite

# Define potential
#
pair_style          sw
pair_coeff * * MLC_e.sw C mW

# Add velocity/set timestep
#

fix		1 graphite setforce 0.0 0.0 0.0
velocity 	graphite set 0.0 0.0 0.0
velocity            water create 235 19978 rot yes dist gaussian
timestep            5.0

# Define output
#
compute 1 water msd
compute 2 water temp

thermo	            100
thermo_style custom step c_2 press vol etotal ke pe c_1[4] density

# Neighbor lists
#
neigh_modify        delay 0 every 1 check yes

# Set fixes
#
fix                 2 water momentum 10 linear 1 1 1 rescale
fix                 3 all nve
fix                 4 water temp/csvr 235 235 500.0 928347

# Run 0.05 ns equilibration
#
dump                1 all custom 100 run_4/eq.ibeam_cooling_4.dump id type x y z vx vy vz
run                 10000
  update every 1 steps, delay 0 steps, check yes
Step c_2 Press Volume TotEng KinEng PotEng c_1[4] Density
0          235   -397.42353       229892   -22660.138    1670.6695   -24330.807            0   0.88510766
Averages over the last 51 of 101 rows, steps 5000 to 10000:
c_2 Press Volume TotEng KinEng PotEng c_1[4] Density
234.919 -337.169 229892 -22715.3 1670.1 -24385.4 20.4735 0.885108
Loop time of 17.9797 on 64 procs for 10000 steps with 9010 atoms

write_data 	    run_4/data.ibeam_cooling_4_eq
System init for write_data ...

undump              1
unfix               4

################################################
#######         Run Simulation         #########
################################################

reset_timestep      0
timestep	    10.0
log                 run_4/log.run_ibeam_cooling_4
