# Create simulation box
#
region 	     all block 0 78.752 0 80.00857099250479 0 30.0 units box
create_box          1 all
Created orthogonal box = (0.0000000 0.0000000 0.0000000) to (78.752000 80.008571 30.000000)

# fill box with randomly distributed atoms of number density 0.0327 N/A**3
#
create_atoms        1 random 6181 63782 all
Created 6181 atoms
mass                1 18.015

# Define potential
#
pair_style          sw
pair_coeff          * * ML.sw mW
Reading sw potential file ML.sw with DATE: 2019-02-27

# Run minimization
#
minimize            1.0e-8 1.0e-8 10000 1000
  update every 1 steps, delay 0 steps, check yes
Step Temp E_pair E_mol TotEng Press
0            0     44224355            0     44224355     21662388
Loop time of 1.31074 on 12 procs for 684 steps with 6181 atoms

Minimization stats:
  Stopping criterion = max force evaluations
  Energy initial, next-to-last, final =
  Force two-norm initial, final = 1.7264213e+09 6.8018756
  Force max component initial, final = 6.9173779e+08 1.7894349
  Final line search alpha, max atom move = 0.047090728 0.084265791
  Iterations, force evaluations = 684 1001

# Add velocity/set timestep
#
velocity            all create 235 120598 rot yes dist gaussian
timestep            5.0

# Define output
#
compute	            1 all msd
thermo	            100
thermo_style        custom step temp press vol etotal ke pe c_1[4] density

# Neighbor lists
#
neigh_modify        delay 0 every 1 check yes

# Set fixes
#
fix                 1 all momentum 10 linear 1 1 1 rescale
fix                 2 all nve
fix                 3 all temp/csvr 235 235 500.0 928347
fix                 4 all press/berendsen z 1 1 1000.0 modulus 20000

# Run equilibration
#
dump                1 all custom 1000 whole.Ibeam_MLmW_235K.dump id type x y z vx vy vz
run                 25000
Step Temp Press Volume TotEng KinEng PotEng c_1[4] Density
684          235       408.08    189025.05   -62411.091    4329.0304   -66740.122 1.1202438e-33   0.97818885
Averages over the last 126 of 252 rows, steps 13200 to 25684:
Temp Press Volume TotEng KinEng PotEng c_1[4] Density
234.595 9.63142 187631 -58555.7 4321.57 -62877.3 69.5721 0.985458
Loop time of 30.7938 on 12 procs for 25000 steps with 6181 atoms

unfix               2
unfix               3
unfix               4

write_data		data.whole_Ibeam_MLmW_235K
System init for write_data ...

# Create the I-beam, width 35A
region beam block 21.876 56.876 0.0 INF 0.0 INF side out
delete_atoms region beam
Deleted 3450 atoms, new total = 2731

fix                 1 all momentum 10 linear 1 1 1 rescale
fix                 2 all nve
fix                 3 all temp/csvr 235 235 500.0 928347

# Run 0.05 ns equilibration
#
dump                2 all custom 1000 eq.Ibeam_MLmW_235K.dump id type x y z vx vy vz
run                 10000
Step Temp Press Volume TotEng KinEng PotEng c_1[4] Density
25684    239.32444    -551.2193       187221   -24846.223    1947.5293   -26793.752     92.66915   0.43636556
Averages over the last 51 of 102 rows, steps 30700 to 35684:
Temp Press Volume TotEng KinEng PotEng c_1[4] Density
232.256 -109.288 187221 -25421.5 1890.01 -27311.5 119.682 0.436366
Loop time of 9.60757 on 12 procs for 10000 steps with 2731 atoms

write_data		data.Ibeam_MLmW_235K
System init for write_data ...
