# Create simulation box and atoms
lattice		    sc 1
Lattice spacing in x,y,z = 1 1 1
region 		    all block 0 50 0 50 0 50 units box
region		    bubble sphere 25.0 25.0 25.0 10.0 side in
create_box 	    1 all
Created orthogonal box = (0 0 0) to (50 50 50)

create_atoms	1 random 4096 83782 all
Created 4096 atoms
  Time spent = 0.00780869 secs

mass		    1 18.15

# Define potential

pair_style 	    sw
pair_coeff	    * * mW_real.sw mW
Reading potential file mW_real.sw with DATE: 2019-02-27

# Run minimization and output files

minimize 	    1.0e-8 1.0e-8 10000 1000
  update every 1 steps, delay 0 steps, check yes
Step Temp E_pair E_mol TotEng Press
0            0    3558105.7            0    3558105.7    2737058.2
Loop time of 2.03821 on 12 procs for 705 steps with 4096 atoms

Minimization stats:
  Stopping criterion = max force evaluations
  Energy initial, next-to-last, final =
  Force two-norm initial, final = 3.20802e+07 3.00429
  Force max component initial, final = 1.17575e+07 0.444838
  Final line search alpha, max atom move = 0.0668328 0.0297298
  Iterations, force evaluations = 705 1001

delete_atoms	    region bubble
Deleted 138 atoms, new total = 3958
fix 		    5 all indent 10.0 sphere 25.0 25.0 25.0 10.0

# Equilibration of molecular water

# Add velocity/set timestep

velocity	    all create 215 120528 rot yes dist gaussian
timestep	    5.0

# Define output

compute			1 all msd
thermo	    	50
thermo_style	custom step temp press vol etotal ke pe c_1[4]

# Neighbor lists

neigh_modify    delay 0 every 1 check yes

# Set fixes

fix             1 all momentum 10 linear 1 1 1 rescale
fix             2 all nve
fix             3 all temp/csvr 215 215 500.0 928347
fix             4 all press/berendsen iso 1 1 1000.0 modulus 20000

# Run 1 ns equilibration

dump		    1 all atom 2000 1nm/run_0/eq.1nm_bubble_0-215.dump

reset_timestep  0

run	            200000
Step Temp Press Volume TotEng KinEng PotEng c_1[4]
0          215   -246.55799       125000   -41800.726    2535.9391   -44336.665 2.4238349e-33
Averages over the last 2001 of 4001 rows, steps 100000 to 200000:
Temp Press Volume TotEng KinEng PotEng c_1[4]
214.733 2.06069 122020 -39523.3 2532.79 -42056.1 419.462
Loop time of 367.183 on 12 procs for 200000 steps with 3958 atoms

write_data		1nm/run_0/data.eq-1nm_bubble_0-215
undump          1

reset_timestep  0

unfix           2
unfix           3
unfix           4

################################################
#######         Run Simulation         #########
################################################

log				1nm/run_0/log.run_1nm_bubble_0
