# Create simulation box of size 70 x 70 x 29.3 Angstrom
#
lattice	     sc 1
Lattice spacing in x,y,z = 1.0000000 1.0000000 1.0000000
region 	     all block 0 70 0 70 0 29.3 units box
create_box          1 all
Created orthogonal box = (0.0000000 0.0000000 0.0000000) to (70.000000 70.000000 29.300000)

# Create cylindrical cavity, with radius of 1.5nm (15 A)
#
region              water cylinder z 35 35 15.1 -0.0 29.3 units box side out
fix 		    5 all indent 10.0 cylinder z 35 35 15 side out units box

# fill box with randomly distributed atoms such that density is ~0.0333 N/A^3
#
create_atoms        1 random 4096 63782 water
Created 4096 atoms
mass                1 18.015

# Define potential
#
pair_style          sw
pair_coeff          * * ML_mW.sw mW
Reading sw potential file ML_mW.sw with DATE: 2019-02-27

# Run minimization
#
minimize            1.0e-8 1.0e-8 10000 1000
  update every 1 steps, delay 0 steps, check yes
Step Temp E_pair E_mol TotEng Press
0            0    8153863.3            0    8153863.3    5357365.9
Loop time of 1.2774 on 6 procs for 643 steps with 4096 atoms

Minimization stats:
  Stopping criterion = max force evaluations
  Energy initial, next-to-last, final =
  Force two-norm initial, final = 2.0857534e+08 4.2127479
  Force max component initial, final = 1.2644871e+08 1.3850161
  Final line search alpha, max atom move = 0.039836313 0.055173936
  Iterations, force evaluations = 643 1000

# Add velocity/set timestep
#
velocity            all create 225 120598 rot yes dist gaussian
timestep            10.0

##### Equilibrate #####

thermo	            100
thermo_style        custom step temp press vol etotal ke pe

# Neighbor lists
#
neigh_modify        delay 0 every 1 check yes

# Set fixes
#
fix                 1 all momentum 10 linear 1 1 1 rescale
fix                 2 all nve
fix                 3 all temp/csvr 225 225 500.0 928347
fix                 4 all press/berendsen iso 1 1 1000.0 modulus 20000

# Run 0.5 ns equilibration
#
dump                1 all custom 1000 eq.15A_cavity_eq_fix.dump id type x y z vx vy vz
run                 50000
Step Temp Press Volume TotEng KinEng PotEng
643          225    806.67686       143570   -41198.504    2746.4439   -43944.948
Averages over the last 251 of 502 rows, steps 25700 to 50643:
Temp Press Volume TotEng KinEng PotEng
224.641 6.27959 144387 -38896.9 2742.06 -41639
Loop time of 58.8666 on 6 procs for 50000 steps with 4096 atoms

write_data data.15A_cavity_eq_fix
System init for write_data ...
