################################################
#######         Run Simulation         #########
################################################

read_data		data.15A_cavity_eq_fix5
Reading data file ...
  orthogonal box = (0.26218465 0.26218465 0.109743) to (69.737815 69.737815 29.190257)
  reading atoms ...
  3981 atoms
  reading velocities ...
  3981 velocities
fix 		       5 all indent 5.0 cylinder z 35 35 15 side out units box

## Real units, atomic atom style (no bonded interactions)
#
timestep            2.0

# Define potential
#
pair_style          sw
pair_coeff          * * ML_mW.sw mW
Reading sw potential file ML_mW.sw with DATE: 2019-02-27

# Set production fixes - Nose/Hoover
#
fix                 2 all nvt temp 225 225 1000.0

# divide "droplet" into core and surface
region		core_reg cylinder z 35 35 25 INF INF units box side out
region		surface_reg cylinder z 35 35 25 INF INF units box side in
group		core dynamic all region core_reg
dynamic group core defined
group		surface dynamic all region surface_reg
dynamic group surface defined

# compute pressure core
compute        peratom_core core stress/atom NULL
compute        p_core core reduce sum c_peratom_core[1] c_peratom_core[2] c_peratom_core[3]
variable       press_core equal -(c_p_core[1]+c_p_core[2]+c_p_core[3])/(3*86039.58)

# compute pressure surface
compute        peratom_surf surface stress/atom NULL
compute        p_surf surface reduce sum c_peratom_surf[1] c_peratom_surf[2] c_peratom_surf[3]
variable       press_surf equal -(c_p_surf[1]+c_p_surf[2]+c_p_surf[3])/(3*36819.46)

# compute order parameter
compute	order all orientorder/atom nnn NULL cutoff 3.5
compute        peratom all stress/atom NULL
compute        p all reduce sum c_peratom[1] c_peratom[2] c_peratom[3]
variable       press equal -(c_p[1]+c_p[2]+c_p[3])/(3*122859.05)

# Run 5ns simulation
thermo_style        custom step temp press vol etotal ke pe v_press v_press_core v_press_surf
thermo              200
dump		        1 all custom 400 prod.15A_cavity_run5.dump id type x y z vx vy vz c_order[*] c_peratom[*]
run                 2500000
  update every 1 steps, delay 10 steps, check yes
Step Temp Press Volume TotEng KinEng PotEng v_press v_press_core v_press_surf
0    225.66175    62.459366    140367.66   -37841.763    2677.1661   -40518.929    71.360436     214.2288   -262.49381
Averages over the last 6251 of 12501 rows, steps 1250000 to 2500000:
Temp Press Volume TotEng KinEng PotEng v_press v_press_core v_press_surf
225.063 88.9883 140368 -37964.3 2670.06 -40634.3 101.67 190.021 -104.788
Loop time of 2513.86 on 6 procs for 2500000 steps with 3981 atoms

write_data 		data.15A_cavity_run5_run
System init for write_data ...
