# Create simulation box and atoms
lattice		    sc 1
Lattice spacing in x,y,z = 1 1 1
region 		    all block 0 100 0 100 0 100 units box
region		    bubble sphere 50.0 50.0 50.0 27.0 side in
create_box 	    1 all
Created orthogonal box = (0 0 0) to (100 100 100)

create_atoms	1 random 32768 83782 all
Created 32768 atoms
  Time spent = 0.00301313 secs
delete_atoms	region bubble
Deleted 2674 atoms, new total = 30094
fix 		5 all indent 10.0 sphere 50.0 50.0 50.0 24.0

mass		    1 18.15

# Define potential

pair_style 	    sw
pair_coeff	    * * mW_real.sw mW
Reading potential file mW_real.sw with DATE: 2019-02-27

# Run minimization and output files

minimize 	    1.0e-8 1.0e-8 10000 1000
  update every 1 steps, delay 0 steps, check yes
Step Temp E_pair E_mol TotEng Press
0            0     29720259            0     29720259    2835500.6
Loop time of 14.6128 on 12 procs for 880 steps with 30094 atoms

Minimization stats:
  Stopping criterion = max force evaluations
  Energy initial, next-to-last, final =
  Force two-norm initial, final = 8.49257e+08 12.5456
  Force max component initial, final = 5.79137e+08 3.05195
  Final line search alpha, max atom move = 0.0501272 0.152986
  Iterations, force evaluations = 880 1000

# Equilibration of molecular water

# Add velocity/set timestep

velocity	    all create 215 120528 rot yes dist gaussian
timestep	    5.0

# Define output

compute			1 all msd
thermo	    	50
thermo_style	custom step temp press vol etotal ke pe c_1[4]

# Neighbor lists

neigh_modify    delay 0 every 1 check yes

# Set fixes

fix             1 all momentum 10 linear 1 1 1 rescale
fix             2 all nve
fix             3 all temp/csvr 215 215 500.0 928347
fix             4 all press/berendsen iso 1 1 1000.0 modulus 20000

# Run 1 ns equilibration

dump		    1 all atom 2000 run_0/eq.bubble_2.4nm_0-215.dump

reset_timestep  0

run	            200000
Step Temp Press Volume TotEng KinEng PotEng c_1[4]
0          215   -114.50267      1000000   -317841.49    19285.826   -337127.31 1.0454435e-33
Averages over the last 2001 of 4001 rows, steps 100000 to 200000:
Temp Press Volume TotEng KinEng PotEng c_1[4]
214.935 1.50313 958578 -300486 19280 -319766 436.695
Loop time of 2543.57 on 12 procs for 200000 steps with 30094 atoms

write_data		run_0/data.eq-bubble_2.4nm_0-215
undump          1

reset_timestep  0

unfix           2
unfix           3
unfix           4

################################################
#######         Run Simulation         #########
################################################

log				run_0/log.run_bubble_2.4nm_0
