# Create simulation box and atoms
lattice		    sc 1
Lattice spacing in x,y,z = 1 1 1
region 		    all block 0 51.42 0 51.42 0 51.42 units box
create_box 	    1 all
Created orthogonal box = (0 0 0) to (51.42 51.42 51.42)

create_atoms	1 random 4457 30622 all
Created 4457 atoms

mass		    1 18.15

# Define potential

pair_style 	    sw
pair_coeff	    * * mW_real.sw mW
Reading potential file mW_real.sw with DATE: 2019-02-27

# Run minimization

minimize 	    1.0e-8 1.0e-8 10000 1000
  update every 1 steps, delay 0 steps, check yes
Step Temp E_pair E_mol TotEng Press
0            0    2225211.1            0    2225211.1    1620111.9
Loop time of 1.88299 on 12 procs for 729 steps with 4457 atoms

Minimization stats:
  Stopping criterion = max force evaluations
  Energy initial, next-to-last, final =
  Force two-norm initial, final = 1.92947e+07 3.77111
  Force max component initial, final = 1.11029e+07 0.830703
  Final line search alpha, max atom move = 0.0617208 0.0512716
  Iterations, force evaluations = 729 1000

# Create Cavity with Hard sphere "indent" potential

region		    cavity sphere 25.71 25.71 25.71 13.8 side in
group               cavity region cavity
359 atoms in group cavity
group               bulk subtract all cavity
4098 atoms in group bulk
delete_atoms	    region cavity
Deleted 359 atoms, new total = 4098
fix 		    5 all indent 10.0 sphere 25.71 25.71 25.71 13.8

# Equilibration of molecular water

# Add velocity/set timestep

velocity	    all create 215 30622 rot yes dist gaussian
timestep	    5.0

# Define output

compute			1 all msd
thermo	    	50
thermo_style	custom step temp press vol etotal ke pe c_1[4]

# Neighbor lists

neigh_modify    delay 0 every 1 check yes

# Set fixes

fix             1 bulk momentum 10 linear 1 1 1 rescale
fix             2 bulk nve
fix             3 bulk temp/csvr 215 215 500.0 30622
fix             4 bulk press/berendsen iso 1.0 1.0 1000.0 modulus 20000

# Run 1 ns equilibration

dump		    1 all atom 2000 run_2/eq.hardcavity_freeze_2-215.dump

reset_timestep  0

run	            200000
Step Temp Press Volume TotEng KinEng PotEng c_1[4]
0          215   -353.72438    135955.32   -43146.523    2625.6614   -45772.184 4.1553024e-33
Averages over the last 2001 of 4001 rows, steps 100000 to 200000:
Temp Press Volume TotEng KinEng PotEng c_1[4]
214.843 1.64661 132169 -40768.4 2623.75 -43392.1 435.993
Loop time of 335.796 on 12 procs for 200000 steps with 4098 atoms

write_data		run_2/data.eq-hardcavity_freeze_2-215
undump          1

reset_timestep  0

unfix           2
unfix           3
unfix           4

################################################
#######         Run Simulation         #########
################################################

log				run_2/log.run_hardcavity_freeze_2
