# Create simulation box
#
region 	     all block 0 68.908 0 68.92587069519459 0 12.0 units box
create_box          1 all
Created orthogonal box = (0.0000000 0.0000000 0.0000000) to (68.908000 68.925871 12.000000)

# fill box with randomly distributed atoms of number density 0.0327 N/A**3
#
create_atoms        1 random 1863 63782 all
Created 1863 atoms
mass                1 18.015

# Define potential
#
pair_style          sw
pair_coeff          * * ML.sw mW
Reading sw potential file ML.sw with DATE: 2019-02-27

# Run minimization
#
minimize            1.0e-8 1.0e-8 10000 1000
  update every 1 steps, delay 0 steps, check yes
Step Temp E_pair E_mol TotEng Press
0            0    7578021.5            0    7578021.5     12382848
Loop time of 0.451172 on 12 procs for 610 steps with 1863 atoms

Minimization stats:
  Stopping criterion = energy tolerance
  Energy initial, next-to-last, final =
  Force two-norm initial, final = 3.4614937e+08 0.1214128
  Force max component initial, final = 2.3871245e+08 0.022449783
  Final line search alpha, max atom move = 1.0000000 0.022449783
  Iterations, force evaluations = 610 988

# Add velocity/set timestep
#
velocity            all create 240 120598 rot yes dist gaussian
timestep            5.0

# Define output
#
compute	            1 all msd
thermo	            100
thermo_style        custom step temp press vol etotal ke pe c_1[4] density

# Neighbor lists
#
neigh_modify        delay 0 every 1 check yes

# Set fixes
#
fix                 1 all momentum 10 linear 1 1 1 rescale
fix                 2 all nve
fix                 3 all temp/csvr 240 240 500.0 928347
fix                 4 all press/berendsen z 1 1 1000.0 modulus 20000

# Run 0.25 ns equilibration
#
dump                1 all custom 1000 whole.Ibeam_MLmW_240K.dump id type x y z vx vy vz
run                 50000
Step Temp Press Volume TotEng KinEng PotEng c_1[4] Density
610          240    140.52293    56994.527   -18717.222    1332.0644   -20049.286 5.1351994e-34   0.97782926
Averages over the last 251 of 502 rows, steps 25700 to 50610:
Temp Press Volume TotEng KinEng PotEng c_1[4] Density
240.221 27.8743 56486.5 -17549.6 1333.29 -18882.9 173.253 0.986636
Loop time of 30.5949 on 12 procs for 50000 steps with 1863 atoms

unfix               2
unfix               3
unfix               4

write_data		data.whole_Ibeam_MLmW_240K
System init for write_data ...

# Create the I-beam, width 35A
region beam block 17.0 53.0 0.0 INF 0.0 INF side out
delete_atoms region beam
Deleted 893 atoms, new total = 970

fix                 1 all momentum 10 linear 1 1 1 rescale
fix                 2 all nve
fix                 3 all temp/csvr 240 240 500.0 928347

# Run 0.05 ns equilibration
#
dump                2 all custom 1000 eq.Ibeam_MLmW_240K.dump id type x y z vx vy vz
run                 10000
Step Temp Press Volume TotEng KinEng PotEng c_1[4] Density
50610    240.48865   -564.66518    56511.194   -8810.1166     694.6286   -9504.7452    243.27012   0.51347651
Averages over the last 51 of 102 rows, steps 55700 to 60610:
Temp Press Volume TotEng KinEng PotEng c_1[4] Density
238.813 -131.158 56511.2 -8969.5 689.79 -9659.29 266.799 0.513477
Loop time of 4.81441 on 12 procs for 10000 steps with 970 atoms

write_data		data.Ibeam_MLmW_240K
System init for write_data ...
