# Create simulation box and atoms
lattice		    sc 1
Lattice spacing in x,y,z = 1 1 1
region 		    all block 0 51.42 0 51.42 0 51.42 units box
create_box 	    1 all
Created orthogonal box = (0 0 0) to (51.42 51.42 51.42)

create_atoms	1 random 4457 32243 all
Created 4457 atoms

mass		    1 18.15

# Define potential

pair_style 	    sw
pair_coeff	    * * mW_real.sw mW
Reading potential file mW_real.sw with DATE: 2019-02-27

# Run minimization

minimize 	    1.0e-8 1.0e-8 10000 1000
  update every 1 steps, delay 0 steps, check yes
Step Temp E_pair E_mol TotEng Press
0            0    3812374.4            0    3812374.4    2696606.2
Loop time of 1.86106 on 12 procs for 697 steps with 4457 atoms

Minimization stats:
  Stopping criterion = max force evaluations
  Energy initial, next-to-last, final =
  Force two-norm initial, final = 2.15512e+07 2.67657
  Force max component initial, final = 6.00108e+06 0.735846
  Final line search alpha, max atom move = 0.0765335 0.0563169
  Iterations, force evaluations = 697 1001

# Create Cavity with Hard sphere "indent" potential

region		    cavity sphere 25.71 25.71 25.71 13.8 side in
group               cavity region cavity
353 atoms in group cavity
group               bulk subtract all cavity
4104 atoms in group bulk
delete_atoms	    region cavity
Deleted 353 atoms, new total = 4104
fix 		    5 all indent 10.0 sphere 25.71 25.71 25.71 13.8

# Equilibration of molecular water

# Add velocity/set timestep

velocity	    all create 215 32243 rot yes dist gaussian
timestep	    5.0

# Define output

compute			1 all msd
thermo	    	50
thermo_style	custom step temp press vol etotal ke pe c_1[4]

# Neighbor lists

neigh_modify    delay 0 every 1 check yes

# Set fixes

fix             1 bulk momentum 10 linear 1 1 1 rescale
fix             2 bulk nve
fix             3 bulk temp/csvr 215 215 500.0 32243
fix             4 bulk press/berendsen iso 1.0 1.0 1000.0 modulus 20000

# Run 1 ns equilibration

dump		    1 all atom 2000 run_0/eq.hardcavity_freeze_0-215.dump

reset_timestep  0

run	            200000
Step Temp Press Volume TotEng KinEng PotEng c_1[4]
0          215   -373.65798    135955.32   -43056.015    2629.5067   -45685.522            0
Averages over the last 2001 of 4001 rows, steps 100000 to 200000:
Temp Press Volume TotEng KinEng PotEng c_1[4]
215.135 0.301427 132405 -40815.1 2631.16 -43446.3 424.379
Loop time of 366.972 on 12 procs for 200000 steps with 4104 atoms

write_data		run_0/data.eq-hardcavity_freeze_0-215
undump          1

reset_timestep  0

unfix           2
unfix           3
unfix           4

################################################
#######         Run Simulation         #########
################################################

log				run_0/log.run_hardcavity_freeze_0
