### Dimensions ###
variable Z_G equal 10.062000000000001
variable Z_W equal 23.803019087

variable	XDIM string 78.752
variable 	YDIM string 80.86108639999017

### IMPORT ATOMS ###
read_data ../Box_Setup/data.Ibeam_240K
  orthogonal box = (0 0 0) to (78.752 80.8611 33.9443)
  reading atoms ...
  9422 atoms
  reading velocities ...
  9422 velocities
group water type 2
2126 atoms in group water
group graphite type 1
7296 atoms in group graphite

# Define potential
#
pair_style          sw
pair_coeff * * MLC_e.sw C mW

# Add velocity/set timestep
#

fix		1 graphite setforce 0.0 0.0 0.0
velocity 	graphite set 0.0 0.0 0.0
velocity            water create 235 354 rot yes dist gaussian
timestep            5.0

# Define output
#
compute 1 water msd
compute 2 water temp

thermo	            100
thermo_style custom step c_2 press vol etotal ke pe c_1[4] density

# Neighbor lists
#
neigh_modify        delay 0 every 1 check yes

# Set fixes
#
fix                 2 water momentum 10 linear 1 1 1 rescale
fix                 3 all nve
fix                 4 water temp/csvr 235 235 500.0 928347

# Run 0.05 ns equilibration
#
dump                1 all custom 100 run_18/eq.ibeam_cooling_18.dump id type x y z vx vy vz
run                 10000
  update every 1 steps, delay 0 steps, check yes
Step c_2 Press Volume TotEng KinEng PotEng c_1[4] Density
0          235   -349.74665    216156.16   -20108.674     1488.542   -21597.216            0   0.96737059
Averages over the last 51 of 101 rows, steps 5000 to 10000:
c_2 Press Volume TotEng KinEng PotEng c_1[4] Density
234.575 -362.15 216156 -20263.6 1485.85 -21749.4 23.5725 0.967371
Loop time of 16.3586 on 120 procs for 10000 steps with 9422 atoms

write_data 	    run_18/data.ibeam_cooling_18_eq

undump              1
unfix               4

################################################
#######         Run Simulation         #########
################################################

reset_timestep      0
timestep	    10.0
log                 run_18/log.run_ibeam_cooling_18
