# Create simulation box of size 270 x 270 x 20 Angstrom
#
lattice	            sc 1
Lattice spacing in x,y,z = 1.0000000 1.0000000 1.0000000
region 	            all block 0 270 0 270 0 20 units box
create_box          1 all
Created orthogonal box = (0.0000000 0.0000000 0.0000000) to (270.00000 270.00000 20.000000)

# fill box with 7151 randomly distributed atoms
#
create_atoms        1 random 48200 63782 all
Created 48200 atoms
mass                1 18.015

# Define potential
#
pair_style          sw
pair_coeff          * * ML_mW.sw mW
Reading sw potential file ML_mW.sw with DATE: 2019-02-27

# Run minimization
#
minimize            1.0e-8 1.0e-8 10000 1000
  update every 1 steps, delay 0 steps, check yes
Step Temp E_pair E_mol TotEng Press
0            0 1.3104625e+08            0 1.3104625e+08    8422633.1
Loop time of 12.9514 on 6 procs for 893 steps with 48200 atoms

Minimization stats:
  Stopping criterion = max force evaluations
  Energy initial, next-to-last, final =
  Force two-norm initial, final = 2.1457810e+09 17.150719
  Force max component initial, final = 6.9133203e+08 3.1582335
  Final line search alpha, max atom move = 0.031546767 0.099632057
  Iterations, force evaluations = 893 1000

# Add velocity/set timestep
#
velocity            all create 225 120598 rot yes dist gaussian
timestep            5.0

# Define output
#
compute	            1 all msd
thermo	            100
thermo_style        custom step temp press vol etotal ke pe c_1[4] density

# Neighbor lists
#
neigh_modify        delay 0 every 1 check yes

# Set fixes
#
fix                 1 all momentum 10 linear 1 1 1 rescale
fix                 2 all nve
fix                 3 all temp/csvr 225 225 500.0 928347
fix                 4 all press/berendsen iso 1 1 1000.0 modulus 20000

# Run 0.5 ns equilibration
#
dump                1 all custom 1000 eq.wall_225K_20A.dump id type x y z vx vy vz
run                 100000
Step Temp Press Volume TotEng KinEng PotEng c_1[4] Density
893          225     596.7424      1458000   -487157.78    32326.214      -519484 9.6139538e-35    0.9889466
Averages over the last 501 of 1002 rows, steps 50900 to 100893:
Temp Press Volume TotEng KinEng PotEng c_1[4] Density
224.913 -2.44373 1.48555e+06 -464424 32313.7 -496738 183.528 0.970609
Loop time of 1009.27 on 6 procs for 100000 steps with 48200 atoms

write_data 	    data.wall_225K_20A
System init for write_data ...

undump              1
unfix               2
unfix               3
unfix               4

################################################
#######         Run Simulation         #########
################################################

reset_timestep      0
log                 log.run_wall_225K_20A
