# Create simulation box of size 270 x 270 x 9 Angstrom
#
lattice	            sc 1
Lattice spacing in x,y,z = 1.0000000 1.0000000 1.0000000
region 	            all block 0 270 0 270 0 9 units box
create_box          1 all
Created orthogonal box = (0.0000000 0.0000000 0.0000000) to (270.00000 270.00000 9.0000000)

# fill box with 7151 randomly distributed atoms
#
create_atoms        1 random 21652 63782 all
Created 21652 atoms
mass                1 18.015

# Define potential
#
pair_style          sw
pair_coeff          * * ML_mW.sw mW
Reading sw potential file ML_mW.sw with DATE: 2019-02-27

# Run minimization
#
minimize            1.0e-8 1.0e-8 10000 1000
  update every 1 steps, delay 0 steps, check yes
Step Temp E_pair E_mol TotEng Press
0            0 1.0573199e+08            0 1.0573199e+08     14969412
Loop time of 5.96367 on 6 procs for 813 steps with 21652 atoms

Minimization stats:
  Stopping criterion = max force evaluations
  Energy initial, next-to-last, final =
  Force two-norm initial, final = 6.6534200e+09 11.134093
  Force max component initial, final = 3.8860532e+09 3.4287641
  Final line search alpha, max atom move = 0.029417933 0.10086715
  Iterations, force evaluations = 813 1001

# Add velocity/set timestep
#
velocity            all create 225 120598 rot yes dist gaussian
timestep            5.0

# Define output
#
compute	            1 all msd
thermo	            100
thermo_style        custom step temp press vol etotal ke pe c_1[4] density

# Neighbor lists
#
neigh_modify        delay 0 every 1 check yes

# Set fixes
#
fix                 1 all momentum 10 linear 1 1 1 rescale
fix                 2 all nve
fix                 3 all temp/csvr 225 225 500.0 928347
fix                 4 all press/berendsen iso 1 1 1000.0 modulus 20000

# Run 0.5 ns equilibration
#
dump                1 all custom 1000 eq.wall_225K_9A.dump id type x y z vx vy vz
run                 100000
Step Temp Press Volume TotEng KinEng PotEng c_1[4] Density
813          225    442.94542       656100   -218327.74    14520.942   -232848.69 1.6113754e-35     0.987214
Averages over the last 501 of 1002 rows, steps 50900 to 100813:
Temp Press Volume TotEng KinEng PotEng c_1[4] Density
225.014 1.89141 697076 -222378 14521.9 -236899 91.3856 0.92919
Loop time of 357.343 on 6 procs for 100000 steps with 21652 atoms

write_data 	    data.wall_225K_9A
System init for write_data ...

undump              1
unfix               2
unfix               3
unfix               4

################################################
#######         Run Simulation         #########
################################################

reset_timestep      0
log                 log.run_wall_225K_9A
