# Create simulation box of size 270 x 270 x 3 Angstrom
#
lattice	            sc 1
Lattice spacing in x,y,z = 1.0000000 1.0000000 1.0000000
region 	            all block 0 270 0 270 0 3 units box
create_box          1 all
Created orthogonal box = (0.0000000 0.0000000 0.0000000) to (270.00000 270.00000 3.0000000)

# fill box with 7151 randomly distributed atoms
#
create_atoms        1 random 7151 63782 all
Created 7151 atoms
mass                1 18.015

# Define potential
#
pair_style          sw
pair_coeff          * * ML_mW.sw mW
Reading sw potential file ML_mW.sw with DATE: 2019-02-27

# Run minimization
#
minimize            1.0e-8 1.0e-8 10000 1000
  update every 1 steps, delay 0 steps, check yes
Step Temp E_pair E_mol TotEng Press
0            0     57621566            0     57621566     24455946
Loop time of 2.27928 on 6 procs for 770 steps with 7151 atoms

Minimization stats:
  Stopping criterion = max force evaluations
  Energy initial, next-to-last, final =
  Force two-norm initial, final = 3.4913531e+09 8.3310715
  Force max component initial, final = 1.7776355e+09 2.4218136
  Final line search alpha, max atom move = 0.027603673 0.06685095
  Iterations, force evaluations = 770 1001

# Add velocity/set timestep
#
velocity            all create 225 120598 rot yes dist gaussian
timestep            5.0

# Define output
#
compute	            1 all msd
thermo	            100
thermo_style        custom step temp press vol etotal ke pe c_1[4] density

# Neighbor lists
#
neigh_modify        delay 0 every 1 check yes

# Set fixes
#
fix                 1 all momentum 10 linear 1 1 1 rescale
fix                 2 all nve
fix                 3 all temp/csvr 225 225 500.0 928347
fix                 4 all press/berendsen iso 1 1 1000.0 modulus 20000

# Run 0.5 ns equilibration
#
dump                1 all custom 1000 eq.wall_225K.dump id type x y z vx vy vz
run                 100000
Step Temp Press Volume TotEng KinEng PotEng c_1[4] Density
770          225     2798.343       218700   -71227.809    4795.3782   -76023.187 1.7043106e-36   0.97814068
Averages over the last 501 of 1002 rows, steps 50800 to 100770:
Temp Press Volume TotEng KinEng PotEng c_1[4] Density
224.944 4.67663 231408 -68986.8 4794.19 -73781 2762.92 0.92443
Loop time of 187.253 on 6 procs for 100000 steps with 7151 atoms

write_data 	    data.wall_225K
System init for write_data ...

undump              1
unfix               2
unfix               3
unfix               4

################################################
#######         Run Simulation         #########
################################################

reset_timestep      0
log                 log.run_wall_225K
