# Create simulation box of size 270 x 270 x 10 Angstrom
#
lattice	     sc 1
Lattice spacing in x,y,z = 1.0000000 1.0000000 1.0000000
region 	     all block 0 270 0 270 0 10 units box
create_box          1 all
Created orthogonal box = (0.0000000 0.0000000 0.0000000) to (270.00000 270.00000 10.000000)

# Create quasi-2d droplet, with radius of 11nm (110 A)
#
region              droplet cylinder z 135 135 45 -0.0 10 units box

# fill box with randomly distributed atoms such that density is ~0.0333 N/A^3
#
create_atoms        1 random 2099 63782 droplet
Created 2099 atoms
mass                1 18.015

# Define potential
#
pair_style          sw
pair_coeff          * * ML_mW.sw mW
Reading sw potential file ML_mW.sw with DATE: 2019-02-27

# Run minimization
#
minimize            1.0e-8 1.0e-8 10000 1000
  update every 1 steps, delay 0 steps, check yes
Step Temp E_pair E_mol TotEng Press
0            0    4556529.9            0    4556529.9     588694.4
Loop time of 1.52895 on 6 procs for 621 steps with 2099 atoms

Minimization stats:
  Stopping criterion = max force evaluations
  Energy initial, next-to-last, final =
  Force two-norm initial, final = 99522465.0 3.0572753
  Force max component initial, final = 67423427.0 0.68975535
  Final line search alpha, max atom move = 0.11430036 0.078839283
  Iterations, force evaluations = 621 1000

# Add velocity/set timestep
#
velocity            all create 225 120598 rot yes dist gaussian
timestep            10.0

##### Equilibrate #####

thermo	            100
thermo_style        custom step temp press vol etotal ke pe

# Neighbor lists
#
neigh_modify        delay 0 every 1 check yes

# Set fixes
#
fix                 1 all momentum 10 linear 1 1 1 rescale
fix                 2 all nve
fix                 3 all temp/csvr 225 225 500.0 928347
fix                 4 all press/berendsen iso 1 1 1000.0 modulus 20000

# Run 0.5 ns equilibration
#
dump                1 all custom 1000 eq.5A_cylinder.dump id type x y z vx vy vz
run                 50000
Step Temp Press Volume TotEng KinEng PotEng
621          225    69.633981       729000   -20818.671    1407.0914   -22225.762
Averages over the last 251 of 502 rows, steps 25700 to 50621:
Temp Press Volume TotEng KinEng PotEng
225.289 -1.19816 682789 -19826.8 1408.9 -21235.7
Loop time of 70.0185 on 6 procs for 50000 steps with 2099 atoms

write_data data.5A_cylinder
System init for write_data ...

##### Turn of thermostat and barostat and run ######

unfix 3
unfix 4
undump 1

dump                2 all custom 1000 eq.5A_cylinder.dump id type x y z vx vy vz

run                 100000
Step Temp Press Volume TotEng KinEng PotEng
50621    223.07815   -12.666154    671010.02   -19970.031    1395.0727   -21365.104
Averages over the last 501 of 1002 rows, steps 100700 to 150621:
Temp Press Volume TotEng KinEng PotEng
266.845 27.661 671010 -19973.2 1668.78 -21641.9
Loop time of 123.96 on 6 procs for 100000 steps with 2099 atoms

write_data data.5A_cylinder
System init for write_data ...
