# Create simulation box of size 270 x 270 x 10 Angstrom
#
lattice	     sc 1
Lattice spacing in x,y,z = 1.0000000 1.0000000 1.0000000
region 	     all block 0 270 0 270 0 20 units box
create_box          1 all
Created orthogonal box = (0.0000000 0.0000000 0.0000000) to (270.00000 270.00000 20.000000)

# Create quasi-2d droplet, with radius of 4.5nm (45 A)
#
region              droplet cylinder z 135 135 45 -0.0 20 units box

# fill box with randomly distributed atoms such that density is ~0.0333 N/A^3
#
create_atoms        1 random 4199 63782 droplet
Created 4199 atoms
mass                1 18.015

# Define potential
#
pair_style          sw
pair_coeff          * * ML_mW.sw mW
Reading sw potential file ML_mW.sw with DATE: 2019-02-27

# Run minimization
#
minimize            1.0e-8 1.0e-8 10000 1000
  update every 1 steps, delay 0 steps, check yes
Step Temp E_pair E_mol TotEng Press
0            0    8975361.8            0    8975361.8    579425.46
Loop time of 3.02189 on 6 procs for 683 steps with 4199 atoms

Minimization stats:
  Stopping criterion = max force evaluations
  Energy initial, next-to-last, final =
  Force two-norm initial, final = 2.0346203e+08 4.2875552
  Force max component initial, final = 1.0568719e+08 0.70712382
  Final line search alpha, max atom move = 0.0620418 0.043871235
  Iterations, force evaluations = 683 1001

# Add velocity/set timestep
#
velocity            all create 225 120598 rot yes dist gaussian
timestep            10.0

##### Equilibrate #####

thermo	            100
thermo_style        custom step temp press vol etotal ke pe

# Neighbor lists
#
neigh_modify        delay 0 every 1 check yes

# Set fixes
#
fix                 1 all momentum 10 linear 1 1 1 rescale
fix                 2 all nve
fix                 3 all temp/csvr 225 225 500.0 928347
fix                 4 all press/berendsen iso 1 1 1000.0 modulus 20000

# Run 0.5 ns equilibration
#
dump                1 all custom 1000 eq.10A_cylinder.dump id type x y z vx vy vz
run                 50000
Step Temp Press Volume TotEng KinEng PotEng
683          225    81.675141      1458000    -41734.96    2815.5241   -44550.484
Averages over the last 251 of 502 rows, steps 25700 to 50683:
Temp Press Volume TotEng KinEng PotEng
224.988 -6.43981 1.25699e+06 -39562.7 2815.38 -42378.1
Loop time of 140.498 on 6 procs for 50000 steps with 4199 atoms

write_data data.10A_cylinder
System init for write_data ...

##### Turn of thermostat and barostat and run ######

unfix 3
unfix 4
undump 1

dump                2 all custom 1000 eq.10A_cylinder.dump id type x y z vx vy vz

run                 100000
Step Temp Press Volume TotEng KinEng PotEng
50683     226.6504   -8.4210268      1198757   -39587.041    2836.1763   -42423.218
Averages over the last 501 of 1002 rows, steps 100700 to 150683:
Temp Press Volume TotEng KinEng PotEng
224.489 -7.44782 1.19876e+06 -39586.3 2809.13 -42395.5
Loop time of 262.123 on 6 procs for 100000 steps with 4199 atoms

write_data data.10A_cylinder
System init for write_data ...
