variable Z_SHIFT equal 20

read_data data.wall_225K_20A_run group wall
Reading data file ...
  orthogonal box = (-0.85299249 -0.85299249 -0.063184629) to (270.85299 270.85299 20.063185)
  reading atoms ...
  48200 atoms
  reading velocities ...
  48200 velocities
read_data data.10A_cylinder add append shift 0.0 0.0 20 group drop
Reading data file ...
  orthogonal box = (-0.85299249 -0.85299249 -0.063184629) to (270.85299 270.85299 39.368237)
  reading atoms ...
  4199 atoms
  reading velocities ...
  4199 velocities

write_data data.initial_10A_pressures
System init for write_data ...

# Define potential
#
pair_style          sw
pair_coeff          * * ML_mW.sw mW
Reading sw potential file ML_mW.sw with DATE: 2019-02-27

# Run minimization
#
minimize            1.0e-8 1.0e-8 10000 1000
  update every 1 steps, delay 0 steps, check yes
Step Temp E_pair E_mol TotEng Press
0    224.16618   -470224.46            0   -435212.29    1131.4916
Loop time of 10.2708 on 6 procs for 812 steps with 52399 atoms

Minimization stats:
  Stopping criterion = max force evaluations
  Energy initial, next-to-last, final =
  Force two-norm initial, final = 196446.06 10.797387
  Force max component initial, final = 126836.77 2.8644733
  Final line search alpha, max atom move = 0.023330074 0.066828375
  Iterations, force evaluations = 812 1001

# Add velocity/set timestep
#
velocity            drop create 225 120598 rot yes dist gaussian
fix		5 wall setforce 0.0 0.0 0.0
timestep            5.0

# Define output
#
compute	            1 drop msd
compute		    2 drop stress/atom NULL
thermo	            100
thermo_style        custom step temp press vol etotal ke pe c_1[4] density

# Neighbor lists
#
neigh_modify        delay 0 every 1 check yes

# Set fixes
#
fix                 1 drop momentum 10 linear 1 1 1 rescale
fix                 2 drop nve
fix                 3 drop temp/csvr 225 225 500.0 928347
fix                 4 drop press/berendsen iso 1 1 1000.0 modulus 20000

# Run 0.5 ns equilibration
#
dump                1 all custom 1000 eq.10A_pressures.dump id type x y z vx vy vz
run                 100000
Step Temp Press Volume TotEng KinEng PotEng c_1[4] Density
812    224.51225    297.80601    2910990.9   -524719.52    35066.227   -559785.75            0   0.53847492
Averages over the last 501 of 1002 rows, steps 50900 to 100812:
Temp Press Volume TotEng KinEng PotEng c_1[4] Density
224.492 0.515634 2.91959e+06 -522215 35063 -557278 64.3329 0.536889
Loop time of 995.989 on 6 procs for 100000 steps with 52399 atoms

write_data 	    data.10A_pressures
System init for write_data ...

undump              1
unfix               2
unfix               3
unfix               4

################################################
#######         Run Simulation         #########
################################################

reset_timestep      0
log                 log.run_10A_pressures
