### Dimensions ###
variable Z_G equal 10.062000000000001
variable Z_W equal 17.781522602

variable	XDIM string 68.908
variable 	YDIM string 68.92587069519459

### IMPORT ATOMS ###
read_data ../Box_Setup/data.Ibeam_240K
Reading data file ...
  orthogonal box = (0.0000000 0.0000000 0.0000000) to (68.908000 68.925871 27.952761)
  reading atoms ...
  6871 atoms
  reading velocities ...
  6871 velocities
group water type 2
1355 atoms in group water
group graphite type 1
5516 atoms in group graphite

# Define potential
#
pair_style          sw
pair_coeff * * MLC_e.sw C mW

# Add velocity/set timestep
#

fix		1 graphite setforce 0.0 0.0 0.0
velocity 	graphite set 0.0 0.0 0.0
velocity            water create 240 18272 rot yes dist gaussian
timestep            5.0

# Define output
#
compute 1 water msd
compute 2 water temp

thermo	            100
thermo_style custom step c_2 press vol etotal ke pe c_1[4] density

# Neighbor lists
#
neigh_modify        delay 0 every 1 check yes

# Set fixes
#
fix                 2 water momentum 10 linear 1 1 1 rescale
fix                 3 all nve
fix                 4 water temp/csvr 240 240 500.0 928347

# Run 0.05 ns equilibration
#
dump                1 all custom 100 run_3/eq.ibeam_cooling_3.dump id type x y z vx vy vz
run                 10000
  update every 1 steps, delay 0 steps, check yes
Step c_2 Press Volume TotEng KinEng PotEng c_1[4] Density
0          240   -543.35458    132762.87   -12919.671    968.64403   -13888.315            0    1.1339035
Averages over the last 51 of 101 rows, steps 5000 to 10000:
c_2 Press Volume TotEng KinEng PotEng c_1[4] Density
237.133 -462.116 132763 -12942.6 957.073 -13899.6 28.1793 1.1339
Loop time of 12.0093 on 64 procs for 10000 steps with 6871 atoms

write_data 	    run_3/data.ibeam_cooling_3_eq
System init for write_data ...

undump              1
unfix               4

################################################
#######         Run Simulation         #########
################################################

reset_timestep      0
timestep	    10.0
log                 run_3/log.run_ibeam_cooling_3
