variable Z_SHIFT equal 10.062000000000001

read_data data.graphite_wall group wall extra/atom/types 1
Reading data file ...
  orthogonal box = (0.0000000 0.0000000 0.0000000) to (265.78800 264.70603 10.062000)
  reading atoms ...
  80676 atoms
  reading velocities ...
  80676 velocities
read_data data.10A_cylinder add append shift 0.0 0.0 10.062 group drop offset 1 0 0 0 0
Reading data file ...
  orthogonal box = (0.0000000 0.0000000 0.0000000) to (265.78800 264.70603 29.423029)
  reading atoms ...
  4199 atoms
  reading velocities ...
  4199 velocities

write_data data.initial_10A_capillary
System init for write_data ...

# Define potential
#
pair_style          sw
pair_coeff * * mWC.sw C mW
Reading sw potential file mWC.sw with DATE: 2019-02-27

# Delete water and ice atoms that are overlapping
#
delete_atoms overlap 2.5 drop wall
System init for delete_atoms ...
  update every 1 steps, delay 10 steps, check yes
Deleted 189 atoms, new total = 84686

# Add velocity/set timestep
#

fix		1 wall setforce 0.0 0.0 0.0
velocity 	wall set 0.0 0.0 0.0
velocity            drop create 225 120598 rot yes dist gaussian
timestep            10.0

# Define output
#
compute	            1 drop msd
compute		    2 drop stress/atom NULL
thermo	            100
thermo_style        custom step temp press vol etotal ke pe c_1[4] density

# Neighbor lists
#
neigh_modify        delay 0 every 1 check yes

# Set fixes
#
fix                 2 drop momentum 10 linear 1 1 1 rescale
fix                 3 all nve
fix                 4 drop temp/csvr 225 225 500.0 928347

# Run 0.5 ns equilibration
#
dump                1 all custom 100 eq.10A_capillary.dump id type x y z vx vy vz
run                 50000
  update every 1 steps, delay 0 steps, check yes
Step Temp Press Volume TotEng KinEng PotEng c_1[4] Density
0    10.651532   -113.57314    2070077.4   -37142.203    2688.7652   -39830.968            0   0.83517886
Averages over the last 251 of 501 rows, steps 25000 to 50000:
Temp Press Volume TotEng KinEng PotEng c_1[4] Density
10.6373 -43.9838 2.07008e+06 -39207.7 2685.16 -41892.9 280.781 0.835179
Loop time of 2212.88 on 12 procs for 50000 steps with 84686 atoms

write_data 	    data.10A_capillary
System init for write_data ...

undump              1
unfix               3
unfix               4

################################################
#######         Run Simulation         #########
################################################

#reset_timestep      0

# Set production fixes - Nose/Hoover
#

# divide "droplet" into core and surface
#region		core_reg cylinder z 135 135 35 20 INF units box
#region		surface_reg cylinder z 135 135 35 20 INF units box side out
#group		core dynamic all region core_reg
#group		surface dynamic all region surface_reg

# compute pressure core
#compute        peratom_core core stress/atom NULL
#compute        p_core core reduce sum c_peratom_core[1] c_peratom_core[2] c_peratom_core[3]
#variable       press_core equal -(c_p_core[1]+c_p_core[2]+c_p_core[3])/(3*76969.02)

# compute pressure surface
#compute        peratom_surf surface stress/atom NULL
#compute        p_surf surface reduce sum c_peratom_surf[1] c_peratom_surf[2] c_peratom_surf[3]
#variable       press_surf equal -(c_p_surf[1]+c_p_surf[2]+c_p_surf[3])/(3*50030.98)

# compute total pressure of drop
#compute        peratom drop stress/atom NULL
#compute        p drop reduce sum c_peratom[1] c_peratom[2] c_peratom[3]
#variable       press equal -(c_p[1]+c_p[2]+c_p[3])/(3*127000)

# compute order parameter
#compute             3 all orientorder/atom nnn NULL cutoff 3.5

# Run 1.0ns simulation
#thermo_style        custom step temp press vol etotal ke pe v_press v_press_core v_press_surf
#thermo              200
#run                 200000
