# Create simulation box of size 270 x 270 x 10 Angstrom
#
lattice	     sc 1
Lattice spacing in x,y,z = 1.0000000 1.0000000 1.0000000
region 	     all block 0 265.788 0 264.7060340242167 0 20 units box
create_box          1 all
Created orthogonal box = (0.0000000 0.0000000 0.0000000) to (265.78800 264.70603 20.000000)

# Create quasi-2d droplet, with radius of 4.5nm (45 A)
#
region              droplet cylinder z 135 135 45 -0.0 20 units box

# fill box with randomly distributed atoms such that density is ~0.0333 N/A^3
#
create_atoms        1 random 4199 63782 droplet
Created 4199 atoms
mass                1 18.015

# Define potential
#
pair_style          sw
pair_coeff          * * mW.sw mW
Reading sw potential file mW.sw with DATE: 2019-02-27

# Run minimization
#
minimize            1.0e-8 1.0e-8 10000 1000
  update every 1 steps, delay 0 steps, check yes
Step Temp E_pair E_mol TotEng Press
0            0    5644285.3            0    5644285.3    378676.97
Loop time of 7.1097 on 12 procs for 721 steps with 4199 atoms

Minimization stats:
  Stopping criterion = max force evaluations
  Energy initial, next-to-last, final =
  Force two-norm initial, final = 1.2707138e+08 4.5215969
  Force max component initial, final = 65985891.0 0.55472275
  Final line search alpha, max atom move = 0.04111285 0.022806233
  Iterations, force evaluations = 721 1000

# Add velocity/set timestep
#
velocity            all create 225 120598 rot yes dist gaussian
timestep            10.0

##### Equilibrate #####

thermo	            100
thermo_style        custom step temp press vol etotal ke pe

# Neighbor lists
#
neigh_modify        delay 0 every 1 check yes

# Set fixes
#
fix                 1 all momentum 10 linear 1 1 1 rescale
fix                 2 all nve
fix                 3 all temp/csvr 225 225 500.0 928347
fix                 4 all press/berendsen iso 1 1 1000.0 modulus 20000

# Run 0.5 ns equilibration
#
dump                1 all custom 1000 eq.10A_cylinder.dump id type x y z vx vy vz
run                 50000
Step Temp Press Volume TotEng KinEng PotEng
721          225    83.297357    1407113.7   -43698.838    2815.5241   -46514.362
Averages over the last 251 of 502 rows, steps 25800 to 50721:
Temp Press Volume TotEng KinEng PotEng
225.299 -8.58565 1.21925e+06 -40657.5 2819.27 -43476.8
Loop time of 335.843 on 12 procs for 50000 steps with 4199 atoms

write_data data.10A_cylinder
System init for write_data ...

##### Turn of thermostat and barostat and run ######

unfix 3
unfix 4
undump 1

dump                2 all custom 1000 eq.10A_cylinder.dump id type x y z vx vy vz

run                 100000
Step Temp Press Volume TotEng KinEng PotEng
50721    222.79041    -4.064222    1154250.1   -40721.584    2787.8746   -43509.459
Averages over the last 501 of 1002 rows, steps 100800 to 150721:
Temp Press Volume TotEng KinEng PotEng
224.388 -6.57651 1.15425e+06 -40722.2 2807.87 -43530.1
Loop time of 616.028 on 12 procs for 100000 steps with 4199 atoms

write_data data.10A_cylinder
System init for write_data ...
