variable Z_SHIFT equal 10.062000000000001

read_data data.graphite_wall group wall extra/atom/types 1
Reading data file ...
  orthogonal box = (0.0000000 0.0000000 0.0000000) to (265.78800 264.70603 10.062000)
  reading atoms ...
  80676 atoms
  reading velocities ...
  80676 velocities
read_data data.10A_cylinder add append shift 0.0 0.0 10.062 group drop offset 1 0 0 0 0
Reading data file ...
  orthogonal box = (0.0000000 0.0000000 0.0000000) to (265.78800 264.70603 29.423029)
  reading atoms ...
  4199 atoms
  reading velocities ...
  4199 velocities

write_data data.initial_10A_capillary_pres
System init for write_data ...

# Define potential
#
pair_style          sw
pair_coeff * * mWC.sw C mW
Reading sw potential file mWC.sw with DATE: 2019-02-27

# Delete water and ice atoms that are overlapping
#
delete_atoms overlap 2.5 drop wall
System init for delete_atoms ...
  update every 1 steps, delay 10 steps, check yes
Deleted 189 atoms, new total = 84686

# Add velocity/set timestep
#

fix		1 wall setforce 0.0 0.0 0.0
velocity 	wall set 0.0 0.0 0.0
velocity            drop create 225 120598 rot yes dist gaussian
timestep            10.0

# Define output
#
compute	            1 drop msd
compute		    2 drop stress/atom NULL
thermo	            100
thermo_style        custom step temp press vol etotal ke pe c_1[4] density

# Neighbor lists
#
neigh_modify        delay 0 every 1 check yes

# Set fixes
#
fix                 2 drop momentum 10 linear 1 1 1 rescale
fix                 3 all nve
fix                 4 drop temp/csvr 225 225 500.0 928347

# Run 0.25 ns equilibration
#
dump                1 all custom 100 eq.10A_capillary_pres.dump id type x y z vx vy vz
run                 25000
  update every 1 steps, delay 0 steps, check yes
Step Temp Press Volume TotEng KinEng PotEng c_1[4] Density
0    10.651532   -113.57314    2070077.4   -37142.203    2688.7652   -39830.968            0   0.83517886
Averages over the last 126 of 251 rows, steps 12500 to 25000:
Temp Press Volume TotEng KinEng PotEng c_1[4] Density
10.634 -44.1168 2.07008e+06 -39203.2 2684.35 -41887.5 168.291 0.835179
Loop time of 1103.84 on 12 procs for 25000 steps with 84686 atoms

write_data 	    data.10A_capillary_pres
System init for write_data ...

undump              1

################################################
#######         Run Simulation         #########
################################################

reset_timestep      0
log                 log.run_10A_capillary_pres
