# Create simulation box and atoms
lattice		    sc 1
Lattice spacing in x,y,z = 1 1 1
region 		    all block 0 51.42 0 51.42 0 51.42 units box
create_box 	    1 all
Created orthogonal box = (0 0 0) to (51.42 51.42 51.42)

create_atoms	1 random 4457 30622 all
Created 4457 atoms

mass		    1 18.15

# Define potential

pair_style 	    sw
pair_coeff	    * * mW_real.sw mW
Reading potential file mW_real.sw with DATE: 2019-02-27

# Run minimization

minimize 	    1.0e-8 1.0e-8 10000 1000
  update every 1 steps, delay 0 steps, check yes
Step Temp E_pair E_mol TotEng Press
0            0    2225211.1            0    2225211.1    1620111.9
Loop time of 2.1208 on 10 procs for 721 steps with 4457 atoms

Minimization stats:
  Stopping criterion = max force evaluations
  Energy initial, next-to-last, final =
  Force two-norm initial, final = 1.92947e+07 3.72429
  Force max component initial, final = 1.11029e+07 0.58149
  Final line search alpha, max atom move = 0.0712248 0.0414165
  Iterations, force evaluations = 721 1000

# Create Cavity with Hard sphere "indent" potential

region		    cavity sphere 25.71 25.71 25.71 13.8 side in
group               cavity region cavity
353 atoms in group cavity
group               bulk subtract all cavity
4104 atoms in group bulk
delete_atoms	    region cavity
Deleted 353 atoms, new total = 4104
fix 		    5 all indent 10.0 sphere 25.71 25.71 25.71 13.8

# Equilibration of molecular water

# Add velocity/set timestep

velocity	    all create 215 30622 rot yes dist gaussian
timestep	    5.0

# Define output

compute			1 all msd
compute        peratom bulk stress/atom NULL
compute        p bulk reduce sum c_peratom[1] c_peratom[2] c_peratom[3]
variable       presstimesvol equal -(c_p[1]+c_p[2]+c_p[3])/(3)
variable       press equal -(c_p[1]+c_p[2]+c_p[3])/(3*vol)
thermo	    	50
thermo_style	custom step temp press vol etotal ke pe c_1[4] v_presstimesvol v_press

# Neighbor lists

neigh_modify    delay 0 every 1 check yes

# Set fixes

fix             1 bulk momentum 10 linear 1 1 1 rescale
fix             2 bulk nve
fix             3 bulk temp/csvr 215 215 500.0 30622
fix             4 bulk press/berendsen iso 1.0 1.0 1000.0 modulus 20000

# Run 1 ns equilibration

dump		    1 all atom 2000 run_0/eq.freecavity_constant_215-215.dump

reset_timestep  0

run	            200000
Step Temp Press Volume TotEng KinEng PotEng c_1[4] v_presstimesvol v_press
0          215   -467.81026    135955.32   -43181.696    2629.5067   -45811.202 3.1362354e-34    -63601295   -467.81026
Averages over the last 2001 of 4001 rows, steps 100000 to 200000:
Temp Press Volume TotEng KinEng PotEng c_1[4] v_presstimesvol v_press
214.764 -0.781776 132413 -40839.4 2626.62 -43466.1 427.006 -103141 -0.781776
Loop time of 396.731 on 10 procs for 200000 steps with 4104 atoms

write_data		run_0/data.eq-freecavity_constant_215-215
undump          1

reset_timestep  0

# Remove hard potential

unfix           2
unfix           3
unfix           4
unfix		5

################################################
#######         Run Simulation         #########
################################################

log				run_0/log.run_freecavity_constant_215
