# read in graphite data
read_data data.graphite group graphite extra/atom/types 1
Reading data file ...
  orthogonal box = (0.0000000 0.0000000 0.0000000) to (78.752000 68.925871 10.062000)
  reading atoms ...
  6304 atoms
  reading velocities ...
  6304 velocities

# Insert water
read_data data.Ibeam_MLmW_240K add append shift 0.0 0.0 10.062 group water offset 1 0 0 0 0
Reading data file ...
  orthogonal box = (0.0000000 0.0000000 0.0000000) to (78.752000 68.925871 33.963510)
  reading atoms ...
  1902 atoms
  reading velocities ...
  1902 velocities

# Define potential
# CHECK ON THIS %%%%%%%%%%%%
#
pair_style sw
pair_coeff * * MLC_e.sw C mW

# Delete water and ice atoms that are overlapping
#
delete_atoms overlap 2.5 water graphite
System init for delete_atoms ...
  update every 1 steps, delay 10 steps, check yes
Deleted 108 atoms, new total = 8098

write_data test.Ibeam_240K
System init for write_data ...
  update every 1 steps, delay 10 steps, check yes

# Fix graphite atoms in place
#
fix 1 graphite setforce 0.0 0.0 0.0
velocity graphite set 0.0 0.0 0.0
velocity water create 240 120598 rot yes dist gaussian
timestep 5.0

# Define output
#

compute 1 water msd
compute 2 water stress/atom NULL
compute 3 water temp

thermo 100
thermo_style custom step c_3 press vol etotal ke pe c_1[4] density

# Neighbor lists
#
neigh_modify delay 0 every 1 check yes

# Set fixes
#
fix                 2 water momentum 10 linear 1 1 1 rescale
fix                 3 all nve
fix                 4 water temp/csvr 240 240 500.0 928347

# Run 0.25 ns equilibration
#
dump                1 all custom 100 eq.Ibeam_240K.dump id type x y z vx vy vz
run                 50000
Step c_3 Press Volume TotEng KinEng PotEng c_1[4] Density
0          240   -697.04508    184355.63   -15972.299    1282.7022   -17255.001            0   0.97305373
Averages over the last 251 of 501 rows, steps 25000 to 50000:
c_3 Press Volume TotEng KinEng PotEng c_1[4] Density
239.71 -376.096 184356 -17000.3 1281.15 -18281.5 123.861 0.973054
Loop time of 161.685 on 12 procs for 50000 steps with 8098 atoms

# Create data file for import to other simulations
#
write_data data.Ibeam_240K
System init for write_data ...
