### Dimensions ###

### IMPORT ATOMS ###
read_data ../Box_Setup/data.Ibeam_240K
Reading data file ...
  orthogonal box = (0.0000000 0.0000000 0.0000000) to (68.908000 85.848302 27.975384)
  reading atoms ...
  8493 atoms
  reading velocities ...
  8493 velocities
group water type 2
1689 atoms in group water
group graphite type 1
6804 atoms in group graphite

# Define potential
#
pair_style          sw
pair_coeff * * MLC_e.sw C mW

# Add velocity/set timestep
#

fix		1 graphite setforce 0.0 0.0 0.0
velocity 	graphite set 0.0 0.0 0.0
velocity            water create 240 8613 rot yes dist gaussian
timestep            5.0

# Define output
#
compute 1 water msd
compute 2 water temp

thermo	            100
thermo_style custom step c_2 press vol etotal ke pe c_1[4] density

# Neighbor lists
#
neigh_modify        delay 0 every 1 check yes

# Set fixes
#
fix                 2 water momentum 10 linear 1 1 1 rescale
fix		3 water nvt temp 240 240 $(100.0*dt)
fix		3 water nvt temp 240 240 500

# Run 0.05 ns equilibration
#
dump                1 all custom 100 run_8/eq.ibeam_cooling_8.dump id type x y z vx vy vz
run                 10000
  update every 1 steps, delay 0 steps, check yes
Step c_2 Press Volume TotEng KinEng PotEng c_1[4] Density
0          240   -298.97748    165492.15   -16025.669    1207.5858   -17233.255            0    1.1252403
Averages over the last 51 of 101 rows, steps 5000 to 10000:
c_2 Press Volume TotEng KinEng PotEng c_1[4] Density
239.156 -463.378 165492 -16087.3 1203.34 -17290.7 29.948 1.12524
Loop time of 6.0059 on 128 procs for 10000 steps with 8493 atoms

write_data 	    run_8/data.ibeam_cooling_8_eq
System init for write_data ...

undump              1
unfix 		3

################################################
#######         Run Simulation         #########
################################################

reset_timestep      0
timestep	    10.0
log                 run_8/log.run_ibeam_cooling_8
