# Create simulation box
#
region 	     all block 0 78.752 0 68.92587069519459 0 24.0 units box
create_box          1 all
Created orthogonal box = (0.0000000 0.0000000 0.0000000) to (78.752000 68.925871 24.000000)

# fill box with randomly distributed atoms of number density 0.0327 N/A**3
#
create_atoms        1 random 4260 63782 all
Created 4260 atoms
mass                1 18.015

# Define potential
#
pair_style          sw
pair_coeff          * * ML.sw mW
Reading sw potential file ML.sw with DATE: 2019-02-27

# Run minimization
#
minimize            1.0e-8 1.0e-8 10000 1000
  update every 1 steps, delay 0 steps, check yes
Step Temp E_pair E_mol TotEng Press
0            0    8670748.9            0    8670748.9    6275413.7
Loop time of 0.992302 on 12 procs for 654 steps with 4260 atoms

Minimization stats:
  Stopping criterion = max force evaluations
  Energy initial, next-to-last, final =
  Force two-norm initial, final = 1.8523982e+08 3.4513189
  Force max component initial, final = 95171751.0 0.9456032
  Final line search alpha, max atom move = 0.067942531 0.064246675
  Iterations, force evaluations = 654 1001

# Add velocity/set timestep
#
velocity            all create 240 120598 rot yes dist gaussian
timestep            5.0

# Define output
#
compute	            1 all msd
thermo	            100
thermo_style        custom step temp press vol etotal ke pe c_1[4] density

# Neighbor lists
#
neigh_modify        delay 0 every 1 check yes

# Set fixes
#
fix                 1 all momentum 10 linear 1 1 1 rescale
fix                 2 all nve
fix                 3 all temp/csvr 240 240 500.0 928347
fix                 4 all press/berendsen z 1 1 1000.0 modulus 20000

# Run 0.25 ns equilibration
#
dump                1 all custom 1000 whole.Ibeam_MLmW_240K.dump id type x y z vx vy vz
run                 50000
Step Temp Press Volume TotEng KinEng PotEng c_1[4] Density
654          240    430.00691     130273.2   -42968.046    3046.8648   -46014.911            0   0.97822291
Averages over the last 251 of 502 rows, steps 25700 to 50654:
Temp Press Volume TotEng KinEng PotEng c_1[4] Density
239.732 -3.48403 128838 -40092.5 3043.46 -43135.9 172.668 0.989127
Loop time of 75.4224 on 12 procs for 50000 steps with 4260 atoms

unfix               2
unfix               3
unfix               4

write_data		data.whole_Ibeam_MLmW_240K
System init for write_data ...

# Create the I-beam, width 35A
region beam block 21.876 56.876 0.0 INF 0.0 INF side out
delete_atoms region beam
Deleted 2358 atoms, new total = 1902

fix                 1 all momentum 10 linear 1 1 1 rescale
fix                 2 all nve
fix                 3 all temp/csvr 240 240 500.0 928347

# Run 0.05 ns equilibration
#
dump                2 all custom 1000 eq.Ibeam_MLmW_240K.dump id type x y z vx vy vz
run                 10000
Step Temp Press Volume TotEng KinEng PotEng c_1[4] Density
50654    241.58262    -443.4741    129203.98   -17242.239    1368.9328   -18611.172    233.06893   0.44037022
Averages over the last 51 of 102 rows, steps 55700 to 60654:
Temp Press Volume TotEng KinEng PotEng c_1[4] Density
239.493 -107.394 129204 -17577.6 1357.09 -18934.7 263.594 0.44037
Loop time of 11.5847 on 12 procs for 10000 steps with 1902 atoms

write_data		data.Ibeam_MLmW_240K
System init for write_data ...
