# Create simulation box
#
region 	     all block 0 157.504 0 42.92415076688989 0 18.0 units box
create_box          1 all
Created orthogonal box = (0.0000000 0.0000000 0.0000000) to (157.50400 42.924151 18.000000)

# fill box with randomly distributed atoms of number density 0.0327 N/A**3
#
create_atoms        1 random 3482 63782 all
Created 3482 atoms
mass                1 18.015

# Define potential
#
pair_style          sw
pair_coeff          * * ML.sw mW
Reading sw potential file ML.sw with DATE: 2019-02-27

# Run minimization
#
minimize            1.0e-8 1.0e-8 10000 1000
  update every 1 steps, delay 0 steps, check yes
Step Temp E_pair E_mol TotEng Press
0            0    4872066.1            0    4872066.1    3796757.7
Loop time of 0.662645 on 12 procs for 695 steps with 3482 atoms

Minimization stats:
  Stopping criterion = max force evaluations
  Energy initial, next-to-last, final =
  Force two-norm initial, final = 77502990.0 3.8703429
  Force max component initial, final = 41343779.0 0.6192315
  Final line search alpha, max atom move = 0.076825139 0.047572547
  Iterations, force evaluations = 695 1000

# Add velocity/set timestep
#
velocity            all create 240 120598 rot yes dist gaussian
timestep            5.0

# Define output
#
compute	            1 all msd
thermo	            100
thermo_style        custom step temp press vol etotal ke pe c_1[4] density

# Neighbor lists
#
neigh_modify        delay 0 every 1 check yes

# Set fixes
#
fix                 1 all momentum 10 linear 1 1 1 rescale
fix                 2 all nve
fix                 3 all temp/csvr 240 240 500.0 928347
fix                 4 all press/berendsen z 1 1 1000.0 modulus 20000

# Run 0.25 ns equilibration
#
dump                1 all custom 1000 whole.Ibeam_MLmW_240K.dump id type x y z vx vy vz
run                 50000
Step Temp Press Volume TotEng KinEng PotEng c_1[4] Density
695          240   -1221.8066    121693.06   -33934.654    2490.2879   -36424.942            0   0.85594585
Averages over the last 251 of 502 rows, steps 25700 to 50695:
Temp Press Volume TotEng KinEng PotEng c_1[4] Density
239.473 23.4394 105283 -32781.7 2484.82 -35266.5 184.377 0.989366
Loop time of 38.4174 on 12 procs for 50000 steps with 3482 atoms

unfix               2
unfix               3
unfix               4

write_data		data.whole_Ibeam_MLmW_240K
System init for write_data ...

# Create the I-beam, width 65A
region beam block 46.252 111.252 0.0 INF 0.0 INF side out
delete_atoms region beam
Deleted 2042 atoms, new total = 1440

fix                 1 all momentum 10 linear 1 1 1 rescale
fix                 2 all nve
fix                 3 all temp/csvr 240 240 500.0 928347

# Run 0.05 ns equilibration
#
dump                2 all custom 1000 eq.Ibeam_MLmW_240K.dump id type x y z vx vy vz
run                 10000
Step Temp Press Volume TotEng KinEng PotEng c_1[4] Density
50695    232.17499   -59.073664     105381.6   -13318.294    995.88807   -14314.182    241.20809    0.4087719
Averages over the last 51 of 102 rows, steps 55700 to 60695:
Temp Press Volume TotEng KinEng PotEng c_1[4] Density
239.377 -74.2474 105382 -13463.4 1026.78 -14490.2 278.424 0.408772
Loop time of 6.46363 on 12 procs for 10000 steps with 1440 atoms

write_data		data.Ibeam_MLmW_240K
System init for write_data ...
