# Create simulation box and atoms
lattice		    sc 1
Lattice spacing in x,y,z = 1 1 1
region 		    all block 0 50 0 50 0 50 units box
region		    bubble sphere 25.0 25.0 25.0 10.0 side in
create_box 	    1 all
Created orthogonal box = (0 0 0) to (50 50 50)

create_atoms	1 random 4096 83738 all
Created 4096 atoms
  Time spent = 0.000484705 secs

mass		    1 18.15

# Define potential

pair_style 	    sw
pair_coeff	    * * mW_real.sw mW
Reading potential file mW_real.sw with DATE: 2019-02-27

# Run minimization and output files

minimize 	    1.0e-8 1.0e-8 10000 1000
  update every 1 steps, delay 0 steps, check yes
Step Temp E_pair E_mol TotEng Press
0            0     52577720            0     52577720     38662219
Loop time of 1.88672 on 12 procs for 700 steps with 4096 atoms

Minimization stats:
  Stopping criterion = max force evaluations
  Energy initial, next-to-last, final =
  Force two-norm initial, final = 4.4379e+09 4.17274
  Force max component initial, final = 3.08403e+09 0.717888
  Final line search alpha, max atom move = 0.0982716 0.070548
  Iterations, force evaluations = 700 1001

delete_atoms	    region bubble
Deleted 140 atoms, new total = 3956
fix 		    5 all indent 10.0 sphere 25.0 25.0 25.0 10.0

# Equilibration of molecular water

# Add velocity/set timestep

velocity	    all create 215 120542 rot yes dist gaussian
timestep	    5.0

# Define output

compute			1 all msd
thermo	    	50
thermo_style	custom step temp press vol etotal ke pe c_1[4]

# Neighbor lists

neigh_modify    delay 0 every 1 check yes

# Set fixes

fix             1 all momentum 10 linear 1 1 1 rescale
fix             2 all nve
fix             3 all temp/csvr 215 215 500.0 928366
fix             4 all press/berendsen iso 1 1 1000.0 modulus 20000

# Run 1 ns equilibration

dump		    1 all atom 2000 1nm/run_1/eq.1nm_bubble_1-215.dump

reset_timestep  0

run	            200000
Step Temp Press Volume TotEng KinEng PotEng c_1[4]
0          215   -306.28356       125000   -41678.532    2534.6573   -44213.189 4.7371853e-33
Averages over the last 2001 of 4001 rows, steps 100000 to 200000:
Temp Press Volume TotEng KinEng PotEng c_1[4]
214.977 -2.62857 121912 -39483.2 2534.39 -42017.6 434.511
Loop time of 403.227 on 12 procs for 200000 steps with 3956 atoms

write_data		1nm/run_1/data.eq-1nm_bubble_1-215
undump          1

reset_timestep  0

unfix           2
unfix           3
unfix           4

################################################
#######         Run Simulation         #########
################################################

log				1nm/run_1/log.run_1nm_bubble_1
