# Create simulation box
#
region 	     all block 0 157.504 0 36.48765944037512 0 36.0 units box
create_box          1 all
Created orthogonal box = (0.0000000 0.0000000 0.0000000) to (157.50400 36.487659 36.000000)

# fill box with randomly distributed atoms of number density 0.0327 N/A**3
#
create_atoms        1 random 6765 63782 all
Created 6765 atoms
mass                1 18.015

# Define potential
#
pair_style          sw
pair_coeff          * * ML.sw mW
Reading sw potential file ML.sw with DATE: 2019-02-27

# Run minimization
#
minimize            1.0e-8 1.0e-8 10000 1000
  update every 1 steps, delay 0 steps, check yes
Step Temp E_pair E_mol TotEng Press
0            0     29575710            0     29575710     13306676
Loop time of 1.39792 on 12 procs for 693 steps with 6765 atoms

Minimization stats:
  Stopping criterion = max force evaluations
  Energy initial, next-to-last, final =
  Force two-norm initial, final = 8.3004069e+08 5.5974828
  Force max component initial, final = 3.5083162e+08 1.4076847
  Final line search alpha, max atom move = 0.081036723 0.11407416
  Iterations, force evaluations = 693 1000

# Add velocity/set timestep
#
velocity            all create 240 120598 rot yes dist gaussian
timestep            5.0

# Define output
#
compute	            1 all msd
thermo	            100
thermo_style        custom step temp press vol etotal ke pe c_1[4] density

# Neighbor lists
#
neigh_modify        delay 0 every 1 check yes

# Set fixes
#
fix                 1 all momentum 10 linear 1 1 1 rescale
fix                 2 all nve
fix                 3 all temp/csvr 240 240 500.0 928347
fix                 4 all press/berendsen z 1 1 1000.0 modulus 20000

# Run equilibration
#
dump                1 all custom 1000 whole.Ibeam_MLmW_240K.dump id type x y z vx vy vz
run                 25000
Step Temp Press Volume TotEng KinEng PotEng c_1[4] Density
693          240    421.14809    206890.28   -68220.718    4838.9278   -73059.646 9.1217622e-34   0.97816255
Averages over the last 126 of 252 rows, steps 13200 to 25693:
Temp Press Volume TotEng KinEng PotEng c_1[4] Density
239.934 -2.73722 204545 -63619.7 4837.59 -68457.3 87.8304 0.989381
Loop time of 33.0517 on 12 procs for 25000 steps with 6765 atoms

unfix               2
unfix               3
unfix               4

write_data		data.whole_Ibeam_MLmW_240K
System init for write_data ...

# Create the I-beam, width 65A
region beam block 46.252 111.252 0.0 INF 0.0 INF side out
delete_atoms region beam
Deleted 3949 atoms, new total = 2816

fix                 1 all momentum 10 linear 1 1 1 rescale
fix                 2 all nve
fix                 3 all temp/csvr 240 240 500.0 928347

# Run 0.05 ns equilibration
#
dump                2 all custom 1000 eq.Ibeam_MLmW_240K.dump id type x y z vx vy vz
run                 10000
Step Temp Press Volume TotEng KinEng PotEng c_1[4] Density
25693     244.0213   -301.16166    204706.97    -25910.24    2047.5779   -27957.818    120.25097   0.41151279
Averages over the last 51 of 102 rows, steps 30700 to 35693:
Temp Press Volume TotEng KinEng PotEng c_1[4] Density
239.561 -36.7876 204707 -26209.2 2010.15 -28219.4 155.306 0.411513
Loop time of 13.2026 on 12 procs for 10000 steps with 2816 atoms

write_data		data.Ibeam_MLmW_240K
System init for write_data ...
