# read in graphite data
read_data data.graphite group graphite extra/atom/types 1
Reading data file ...
  orthogonal box = (0.0000000 0.0000000 0.0000000) to (157.50400 36.487659 10.062000)
  reading atoms ...
  6720 atoms
  reading velocities ...
  6720 velocities

# Insert water
read_data data.Ibeam_MLmW_240K add append shift 0.0 0.0 10.062 group water offset 1 0 0 0 0
Reading data file ...
  orthogonal box = (0.0000000 0.0000000 0.0000000) to (157.50400 36.487659 45.872046)
  reading atoms ...
  2816 atoms
  reading velocities ...
  2816 velocities

# Define potential
# CHECK ON THIS %%%%%%%%%%%%
#
pair_style sw
pair_coeff * * MLC_e.sw C mW

# Delete water and ice atoms that are overlapping
#
delete_atoms overlap 2.5 water graphite
System init for delete_atoms ...
  update every 1 steps, delay 10 steps, check yes
Deleted 100 atoms, new total = 9436

write_data test.Ibeam_240K
System init for write_data ...
  update every 1 steps, delay 10 steps, check yes

# Fix graphite atoms in place
#
fix 1 graphite setforce 0.0 0.0 0.0
velocity graphite set 0.0 0.0 0.0
velocity water create 240 120598 rot yes dist gaussian
timestep 5.0

# Define output
#

compute 1 water msd
compute 2 water stress/atom NULL
compute 3 water temp

thermo 100
thermo_style custom step c_3 press vol etotal ke pe c_1[4] density

# Neighbor lists
#
neigh_modify delay 0 every 1 check yes

# Set fixes
#
fix                 2 water momentum 10 linear 1 1 1 rescale
fix                 3 all nve
fix                 4 water temp/csvr 240 240 500.0 928347

# Run 0.25 ns equilibration
#
dump                1 all custom 100 eq.Ibeam_240K.dump id type x y z vx vy vz
run                 50000
Step c_3 Press Volume TotEng KinEng PotEng c_1[4] Density
0          240    -478.2943    263624.46   -24723.372    1942.2958   -26665.668            0   0.81656126
Averages over the last 251 of 501 rows, steps 25000 to 50000:
c_3 Press Volume TotEng KinEng PotEng c_1[4] Density
239.194 -268.165 263624 -25792.8 1935.77 -27728.6 138.865 0.816561
Loop time of 191.297 on 12 procs for 50000 steps with 9436 atoms

# Create data file for import to other simulations
#
write_data data.Ibeam_240K
System init for write_data ...
