# Create simulation box
#
region 	     all block 0 78.752 0 80.13644830362759 0 24.0 units box
create_box          1 all
Created orthogonal box = (0.0000000 0.0000000 0.0000000) to (78.752000 80.136448 24.000000)

# fill box with randomly distributed atoms of number density 0.0327 N/A**3
#
create_atoms        1 random 4953 63782 all
Created 4953 atoms
mass                1 18.015

# Define potential
#
pair_style          sw
pair_coeff          * * ML.sw mW
Reading sw potential file ML.sw with DATE: 2019-02-27

# Run minimization
#
minimize            1.0e-8 1.0e-8 10000 1000
  update every 1 steps, delay 0 steps, check yes
Step Temp E_pair E_mol TotEng Press
0            0    8964612.2            0    8964612.2      5597488
Loop time of 1.0784 on 12 procs for 683 steps with 4953 atoms

Minimization stats:
  Stopping criterion = max force evaluations
  Energy initial, next-to-last, final =
  Force two-norm initial, final = 1.8323155e+08 4.7813124
  Force max component initial, final = 94739425.0 1.1227720
  Final line search alpha, max atom move = 0.047483585 0.053313241
  Iterations, force evaluations = 683 1000

# Add velocity/set timestep
#
velocity            all create 240 120598 rot yes dist gaussian
timestep            5.0

# Define output
#
compute	            1 all msd
thermo	            100
thermo_style        custom step temp press vol etotal ke pe c_1[4] density

# Neighbor lists
#
neigh_modify        delay 0 every 1 check yes

# Set fixes
#
fix                 1 all momentum 10 linear 1 1 1 rescale
fix                 2 all nve
fix                 3 all temp/csvr 240 240 500.0 928347
fix                 4 all press/berendsen z 1 1 1000.0 modulus 20000

# Run 0.25 ns equilibration
#
dump                1 all custom 1000 whole.Ibeam_MLmW_240K.dump id type x y z vx vy vz
run                 50000
Step Temp Press Volume TotEng KinEng PotEng c_1[4] Density
683          240    795.44692    151461.73   -50000.332    3542.6331   -53542.965            0   0.97824746
Averages over the last 251 of 502 rows, steps 25700 to 50683:
Temp Press Volume TotEng KinEng PotEng c_1[4] Density
240.03 -19.3016 149828 -46593 3543.07 -50136.1 172.102 0.988919
Loop time of 57.1743 on 12 procs for 50000 steps with 4953 atoms

unfix               2
unfix               3
unfix               4

write_data		data.whole_Ibeam_MLmW_240K
System init for write_data ...

# Create the I-beam, width 35A
region beam block 21.876 56.876 0.0 INF 0.0 INF side out
delete_atoms region beam
Deleted 2745 atoms, new total = 2208

fix                 1 all momentum 10 linear 1 1 1 rescale
fix                 2 all nve
fix                 3 all temp/csvr 240 240 500.0 928347

# Run 0.05 ns equilibration
#
dump                2 all custom 1000 eq.Ibeam_MLmW_240K.dump id type x y z vx vy vz
run                 10000
Step Temp Press Volume TotEng KinEng PotEng c_1[4] Density
50683    238.22742   -388.88625    149208.29   -19994.328    1567.2143   -21561.542    225.20776   0.44267952
Averages over the last 51 of 102 rows, steps 55700 to 60683:
Temp Press Volume TotEng KinEng PotEng c_1[4] Density
238.502 -123.9 149208 -20431.1 1569.02 -22000.2 261.793 0.44268
Loop time of 8.94318 on 12 procs for 10000 steps with 2208 atoms

write_data		data.Ibeam_MLmW_240K
System init for write_data ...
