# Create simulation box of size 270 x 270 x 10 Angstrom
#
lattice	     sc 1
Lattice spacing in x,y,z = 1.0000000 1.0000000 1.0000000
region 	     all block 0 270 0 270 0 20 units box
create_box          1 all
Created orthogonal box = (0.0000000 0.0000000 0.0000000) to (270.00000 270.00000 20.000000)

# Create quasi-2d droplet, with radius of 5.36nm (53.6 A)
#
region              droplet cylinder z 135 135 53.6 -0.0 20 units box

# fill box with randomly distributed atoms such that density is ~0.0333 N/A^3
#
create_atoms        1 random 6011 63782 droplet
Created 6011 atoms
mass                1 18.015

# Define potential
#
pair_style          sw
pair_coeff          * * ML_mW.sw mW
Reading sw potential file ML_mW.sw with DATE: 2019-02-27

# Run minimization
#
minimize            1.0e-8 1.0e-8 10000 1000
  update every 1 steps, delay 0 steps, check yes
Step Temp E_pair E_mol TotEng Press
0            0     28626099            0     28626099    1825611.9
Loop time of 7.12738 on 6 procs for 705 steps with 6011 atoms

Minimization stats:
  Stopping criterion = max force evaluations
  Energy initial, next-to-last, final =
  Force two-norm initial, final = 6.4829396e+08 4.5487843
  Force max component initial, final = 2.6996440e+08 0.90006525
  Final line search alpha, max atom move = 0.046459785 0.041816838
  Iterations, force evaluations = 705 1001

# Add velocity/set timestep
#
velocity            all create 225 120598 rot yes dist gaussian
timestep            10.0

##### Equilibrate #####

thermo	            100
thermo_style        custom step temp press vol etotal ke pe

# Neighbor lists
#
neigh_modify        delay 0 every 1 check yes

# Set fixes
#
fix                 1 all momentum 10 linear 1 1 1 rescale
fix                 2 all nve
fix                 3 all temp/csvr 225 225 500.0 928347
fix                 4 all press/berendsen iso 1 1 1000.0 modulus 20000

# Run 0.5 ns equilibration
#
dump                1 all custom 1000 eq.10A_54A_cylinder.dump id type x y z vx vy vz
run                 50000
Step Temp Press Volume TotEng KinEng PotEng
705          225    120.79594      1458000   -60044.568    4030.8004   -64075.368
Averages over the last 251 of 502 rows, steps 25800 to 50705:
Temp Press Volume TotEng KinEng PotEng
224.958 -7.8765 1.23536e+06 -56820 4030.05 -60850
Loop time of 413.737 on 6 procs for 50000 steps with 6011 atoms

write_data data.10A_54A_cylinder
System init for write_data ...

##### Turn off thermostat and barostat and run ######

unfix 3
unfix 4
undump 1

dump                2 all custom 1000 eq.10A_54A_cylinder.dump id type x y z vx vy vz

run                 100000
Step Temp Press Volume TotEng KinEng PotEng
50705    225.48906   -49.214552    1165182.1   -56883.228    4039.5617    -60922.79
Averages over the last 501 of 1002 rows, steps 100800 to 150705:
Temp Press Volume TotEng KinEng PotEng
223.616 -9.74 1.16518e+06 -56881.9 4006 -60887.9
Loop time of 774.605 on 6 procs for 100000 steps with 6011 atoms

write_data data.10A_54A_cylinder
System init for write_data ...
